Test_Network/condensed/network_10/Feeder_1/LinesUnq.txt
New Line.LINE101_1 Bus1=101_1 Bus2=101_2 phases=3 Linecode=4c_.25 Length=0.98668 Units=m
New Line.LINE101_2 Bus1=101_2 Bus2=101_3 phases=3 Linecode=4c_.25 Length=0.085494 Units=m
New Line.LINE101_3 Bus1=101_3 Bus2=101_4 phases=3 Linecode=4c_.25 Length=0.1414 Units=m
New Line.LINE101_4 Bus1=101_4 Bus2=101_5 phases=3 Linecode=4c_.25 Length=0.1009 Units=m
New Line.LINE101_5 Bus1=101_5 Bus2=101_6 phases=3 Linecode=4c_.25 Length=0.097062 Units=m
New Line.LINE101_6 Bus1=101_6 Bus2=101_7 phases=3 Linecode=4c_.25 Length=0.13025 Units=m
New Line.LINE101_7 Bus1=101_7 Bus2=101_8 phases=3 Linecode=4c_.25 Length=0.129 Units=m
New Line.LINE101_8 Bus1=101_8 Bus2=101_9 phases=3 Linecode=4c_.25 Length=0.10502 Units=m
New Line.LINE101_9 Bus1=101_9 Bus2=101_10 phases=3 Linecode=4c_.25 Length=0.53928 Units=m
New Line.LINE101_10 Bus1=101_10 Bus2=101_11 phases=3 Linecode=4c_.25 Length=0.16256 Units=m
New Line.LINE101_11 Bus1=101_11 Bus2=101_12 phases=3 Linecode=4c_.25 Length=0.164 Units=m
New Line.LINE101_12 Bus1=101_12 Bus2=101_13 phases=3 Linecode=4c_.25 Length=0.15146 Units=m
New Line.LINE101_13 Bus1=101_13 Bus2=101_14 phases=3 Linecode=4c_.25 Length=0.15033 Units=m
New Line.LINE101_14 Bus1=101_14 Bus2=101_15 phases=3 Linecode=4c_.25 Length=0.101 Units=m
New Line.LINE101_15 Bus1=101_15 Bus2=101_16 phases=3 Linecode=4c_.25 Length=0.20304 Units=m
New Line.LINE101_16 Bus1=101_16 Bus2=101_17 phases=3 Linecode=4c_.25 Length=0.28936 Units=m
New Line.LINE101_17 Bus1=101_17 Bus2=101_18 phases=3 Linecode=4c_.25 Length=0.37381 Units=m
New Line.LINE101_18 Bus1=101_18 Bus2=101_19 phases=3 Linecode=4c_.25 Length=0.4315 Units=m
New Line.LINE101_19 Bus1=101_19 Bus2=101_20 phases=3 Linecode=4c_.25 Length=0.38908 Units=m
New Line.LINE101_20 Bus1=101_20 Bus2=101_21 phases=3 Linecode=4c_.25 Length=0.42339 Units=m
New Line.LINE101_21 Bus1=101_21 Bus2=101_22 phases=3 Linecode=4c_.25 Length=0.36872 Units=m
New Line.LINE101_22 Bus1=101_22 Bus2=101_23 phases=3 Linecode=4c_.25 Length=0.32704 Units=m
New Line.LINE101_23 Bus1=101_23 Bus2=101_24 phases=3 Linecode=4c_.25 Length=0.41008 Units=m
New Line.LINE101_24 Bus1=101_24 Bus2=101_25 phases=3 Linecode=4c_.25 Length=0.40317 Units=m
New Line.LINE101_25 Bus1=101_25 Bus2=101_26 phases=3 Linecode=4c_.25 Length=0.44942 Units=m
New Line.LINE101_26 Bus1=101_26 Bus2=101_27 phases=3 Linecode=4c_.25 Length=0.2329 Units=m
New Line.LINE101_27 Bus1=101_27 Bus2=101_28 phases=3 Linecode=4c_.25 Length=0.3891 Units=m
New Line.LINE101_28 Bus1=101_28 Bus2=101_29 phases=3 Linecode=3c_240_SAC_XC Length=0.57277 Units=m
New Line.LINE101_29 Bus1=101_29 Bus2=101_30 phases=3 Linecode=3c_240_SAC_XC Length=6.5824 Units=m
New Line.LINE101_30 Bus1=101_30 Bus2=101_31 phases=3 Linecode=3c_240_SAC_XC Length=1.5394 Units=m
New Line.LINE101_31 Bus1=101_31 Bus2=101_32 phases=3 Linecode=3c_240_SAC_XC Length=0.30305 Units=m
New Line.LINE101_32 Bus1=101_32 Bus2=101_33 phases=3 Linecode=3c_240_SAC_XC Length=0.36586 Units=m
New Line.LINE101_33 Bus1=101_33 Bus2=101_34 phases=3 Linecode=3c_240_SAC_XC Length=0.46683 Units=m
New Line.LINE101_34 Bus1=101_34 Bus2=101_35 phases=3 Linecode=3c_240_SAC_XC Length=0.49314 Units=m
New Line.LINE101_35 Bus1=101_35 Bus2=101_36 phases=3 Linecode=3c_240_SAC_XC Length=1.287 Units=m
New Line.LINE101_36 Bus1=101_36 Bus2=101_37 phases=3 Linecode=3c_240_SAC_XC Length=0.67711 Units=m
New Line.LINE101_37 Bus1=101_37 Bus2=101_38 phases=3 Linecode=3c_240_SAC_XC Length=0.19671 Units=m
New Line.LINE101_38 Bus1=101_38 Bus2=101_39 phases=3 Linecode=3c_240_SAC_XC Length=0.11802 Units=m
New Line.LINE101_39 Bus1=101_39 Bus2=101_40 phases=3 Linecode=3c_240_SAC_XC Length=0.085999 Units=m
New Line.LINE101_40 Bus1=101_40 Bus2=101_41 phases=3 Linecode=3c_240_SAC_XC Length=0.072835 Units=m
New Line.LINE101_41 Bus1=101_41 Bus2=101_42 phases=3 Linecode=3c_240_SAC_XC Length=0.063152 Units=m
New Line.LINE101_42 Bus1=101_42 Bus2=101_43 phases=3 Linecode=3c_240_SAC_XC Length=0.067778 Units=m
New Line.LINE101_43 Bus1=101_43 Bus2=101_44 phases=3 Linecode=3c_240_SAC_XC Length=0.074632 Units=m
New Line.LINE101_44 Bus1=101_44 Bus2=101_45 phases=3 Linecode=3c_240_SAC_XC Length=0.075689 Units=m
New Line.LINE101_45 Bus1=101_45 Bus2=101_46 phases=3 Linecode=3c_240_SAC_XC Length=0.15166 Units=m
New Line.LINE101_46 Bus1=101_46 Bus2=101_47 phases=3 Linecode=3c_300_SAC_XC Length=0.12107 Units=m
New Line.LINE101_47 Bus1=101_46 Bus2=101_48 phases=3 Linecode=3c_300_SAC_XC Length=0.22119 Units=m
New Line.LINE101_48 Bus1=101_46 Bus2=101_49 phases=3 Linecode=3c_300_SAC_XC Length=0.22119 Units=m
New Line.LINE101_49 Bus1=101_47 Bus2=101_50 phases=3 Linecode=3c_300_SAC_XC Length=0.075181 Units=m
New Line.LINE101_50 Bus1=101_48 Bus2=101_51 phases=3 Linecode=3c_300_SAC_XC Length=0.18131 Units=m
New Line.LINE101_51 Bus1=101_48 Bus2=101_52 phases=3 Linecode=3c_300_SAC_XC Length=0.01 Units=m
New Line.LINE101_52 Bus1=101_48 Bus2=101_53 phases=3 Linecode=3c_300_SAC_XC Length=0.01 Units=m
New Line.LINE101_53 Bus1=101_48 Bus2=101_54 phases=3 Linecode=3c_300_SAC_XC Length=0.01 Units=m
New Line.LINE101_54 Bus1=101_48 Bus2=101_55 phases=3 Linecode=3c_300_SAC_XC Length=0.01 Units=m
New Line.LINE101_55 Bus1=101_48 Bus2=101_56 phases=3 Linecode=3c_300_SAC_XC Length=0.01 Units=m
New Line.LINE101_56 Bus1=101_48 Bus2=101_57 phases=3 Linecode=3c_300_SAC_XC Length=0.01 Units=m
New Line.LINE101_57 Bus1=101_50 Bus2=101_58 phases=3 Linecode=3c_300_SAC_XC Length=0.075286 Units=m
New Line.LINE101_58 Bus1=101_51 Bus2=101_59 phases=3 Linecode=3c_300_SAC_XC Length=0.07713 Units=m
New Line.LINE101_59 Bus1=101_51 Bus2=101_60 phases=3 Linecode=3c_300_SAC_XC Length=0.07713 Units=m
New Line.LINE101_60 Bus1=101_58 Bus2=101_61 phases=3 Linecode=3c_300_SAC_XC Length=0.074674 Units=m
New Line.LINE101_61 Bus1=101_59 Bus2=101_62 phases=3 Linecode=3c_300_SAC_XC Length=0.087596 Units=m
New Line.LINE101_62 Bus1=101_59 Bus2=101_63 phases=3 Linecode=3c_300_SAC_XC Length=0.087596 Units=m
New Line.LINE101_63 Bus1=101_61 Bus2=101_64 phases=3 Linecode=3c_300_SAC_XC Length=0.075059 Units=m
New Line.LINE101_64 Bus1=101_62 Bus2=101_65 phases=3 Linecode=3c_300_SAC_XC Length=0.32293 Units=m
New Line.LINE101_65 Bus1=101_62 Bus2=101_66 phases=3 Linecode=3c_300_SAC_XC Length=0.32293 Units=m
New Line.LINE101_66 Bus1=101_64 Bus2=101_67 phases=3 Linecode=3c_300_SAC_XC Length=0.074953 Units=m
New Line.LINE101_67 Bus1=101_65 Bus2=101_68 phases=3 Linecode=3c_300_SAC_XC Length=0.30256 Units=m
New Line.LINE101_68 Bus1=101_65 Bus2=101_69 phases=3 Linecode=3c_300_SAC_XC Length=0.30256 Units=m
New Line.LINE101_69 Bus1=101_67 Bus2=101_70 phases=3 Linecode=3c_300_SAC_XC Length=1.9412 Units=m
New Line.LINE101_70 Bus1=101_68 Bus2=101_71 phases=3 Linecode=3c_300_SAC_XC Length=9.43 Units=m
New Line.LINE101_71 Bus1=101_68 Bus2=101_72 phases=3 Linecode=3c_300_SAC_XC Length=9.43 Units=m
New Line.LINE101_72 Bus1=101_70 Bus2=101_73 phases=3 Linecode=3c_300_SAC_XC Length=3.1523 Units=m
New Line.LINE101_73 Bus1=101_71 Bus2=101_74 phases=3 Linecode=3c_300_SAC_XC Length=0.10959 Units=m
New Line.LINE101_74 Bus1=101_71 Bus2=101_75 phases=3 Linecode=3c_300_SAC_XC Length=0.10959 Units=m
New Line.LINE101_75 Bus1=101_73 Bus2=101_76 phases=3 Linecode=3c_300_SAC_XC Length=1.4248 Units=m
New Line.LINE101_76 Bus1=101_74 Bus2=101_77 phases=3 Linecode=3c_300_SAC_XC Length=0.10979 Units=m
New Line.LINE101_77 Bus1=101_74 Bus2=101_78 phases=3 Linecode=3c_300_SAC_XC Length=0.10979 Units=m
New Line.LINE101_78 Bus1=101_76 Bus2=101_79 phases=3 Linecode=3c_300_SAC_XC Length=1.482 Units=m
New Line.LINE101_79 Bus1=101_77 Bus2=101_80 phases=3 Linecode=3c_300_SAC_XC Length=0.10945 Units=m
New Line.LINE101_80 Bus1=101_77 Bus2=101_81 phases=3 Linecode=3c_300_SAC_XC Length=0.10945 Units=m
New Line.LINE101_81 Bus1=101_79 Bus2=101_82 phases=3 Linecode=3c_300_SAC_XC Length=4.2359 Units=m
New Line.LINE101_82 Bus1=101_80 Bus2=101_83 phases=3 Linecode=3c_300_SAC_XC Length=3.038 Units=m
New Line.LINE101_83 Bus1=101_80 Bus2=101_84 phases=3 Linecode=3c_300_SAC_XC Length=3.038 Units=m
New Line.LINE101_84 Bus1=101_82 Bus2=101_85 phases=3 Linecode=3c_300_SAC_XC Length=4.0765 Units=m
New Line.LINE101_85 Bus1=101_83 Bus2=101_86 phases=3 Linecode=3c_300_SAC_XC Length=12.6376 Units=m
New Line.LINE101_86 Bus1=101_83 Bus2=101_87 phases=3 Linecode=3c_300_SAC_XC Length=12.6376 Units=m
New Line.LINE101_87 Bus1=101_85 Bus2=101_88 phases=3 Linecode=3c_300_SAC_XC Length=0.058249 Units=m
New Line.LINE101_88 Bus1=101_86 Bus2=101_89 phases=3 Linecode=3c_300_SAC_XC Length=1.453 Units=m
New Line.LINE101_89 Bus1=101_86 Bus2=101_90 phases=3 Linecode=3c_300_SAC_XC Length=1.453 Units=m
New Line.LINE101_90 Bus1=101_88 Bus2=101_91 phases=3 Linecode=3c_300_SAC_XC Length=0.063008 Units=m
New Line.LINE101_91 Bus1=101_89 Bus2=101_92 phases=3 Linecode=3c_300_SAC_XC Length=0.99474 Units=m
New Line.LINE101_92 Bus1=101_89 Bus2=101_93 phases=3 Linecode=3c_300_SAC_XC Length=0.99474 Units=m
New Line.LINE101_93 Bus1=101_91 Bus2=101_94 phases=3 Linecode=3c_300_SAC_XC Length=0.079006 Units=m
New Line.LINE101_94 Bus1=101_92 Bus2=101_95 phases=3 Linecode=3c_300_SAC_XC Length=0.99445 Units=m
New Line.LINE101_95 Bus1=101_92 Bus2=101_96 phases=3 Linecode=3c_300_SAC_XC Length=0.99445 Units=m
New Line.LINE101_96 Bus1=101_94 Bus2=101_97 phases=3 Linecode=3c_300_SAC_XC Length=0.631 Units=m
New Line.LINE101_97 Bus1=101_95 Bus2=101_98 phases=3 Linecode=3c_300_SAC_XC Length=0.99577 Units=m
New Line.LINE101_98 Bus1=101_95 Bus2=101_99 phases=3 Linecode=3c_300_SAC_XC Length=0.99577 Units=m
New Line.LINE101_99 Bus1=101_97 Bus2=101_100 phases=3 Linecode=3c_300_SAC_XC Length=0.761 Units=m
New Line.LINE101_100 Bus1=101_98 Bus2=101_101 phases=3 Linecode=3c_300_SAC_XC Length=0.85507 Units=m
New Line.LINE101_101 Bus1=101_98 Bus2=101_102 phases=3 Linecode=3c_300_SAC_XC Length=0.85507 Units=m
New Line.LINE101_102 Bus1=101_100 Bus2=101_103 phases=3 Linecode=3c_300_SAC_XC Length=0.36201 Units=m
New Line.LINE101_103 Bus1=101_101 Bus2=101_104 phases=3 Linecode=3c_300_SAC_XC Length=0.855 Units=m
New Line.LINE101_104 Bus1=101_101 Bus2=101_105 phases=3 Linecode=3c_300_SAC_XC Length=0.855 Units=m
New Line.LINE101_105 Bus1=101_103 Bus2=101_106 phases=3 Linecode=3c_300_SAC_XC Length=0.262 Units=m
New Line.LINE101_106 Bus1=101_104 Bus2=101_107 phases=3 Linecode=3c_300_SAC_XC Length=0.85561 Units=m
New Line.LINE101_107 Bus1=101_104 Bus2=101_108 phases=3 Linecode=3c_300_SAC_XC Length=0.85561 Units=m
New Line.LINE101_108 Bus1=101_106 Bus2=101_109 phases=3 Linecode=3c_300_SAC_XC Length=0.2146 Units=m
New Line.LINE101_109 Bus1=101_107 Bus2=101_110 phases=3 Linecode=3c_300_SAC_XC Length=0.85506 Units=m
New Line.LINE101_110 Bus1=101_107 Bus2=101_111 phases=3 Linecode=3c_300_SAC_XC Length=0.85506 Units=m
New Line.LINE101_111 Bus1=101_109 Bus2=101_112 phases=3 Linecode=3c_300_SAC_XC Length=0.1063 Units=m
New Line.LINE101_112 Bus1=101_110 Bus2=101_113 phases=3 Linecode=3c_300_SAC_XC Length=0.856 Units=m
New Line.LINE101_113 Bus1=101_110 Bus2=101_114 phases=3 Linecode=3c_300_SAC_XC Length=0.856 Units=m
New Line.LINE101_114 Bus1=101_112 Bus2=101_115 phases=3 Linecode=3c_300_SAC_XC Length=0.16568 Units=m
New Line.LINE101_115 Bus1=101_113 Bus2=101_116 phases=3 Linecode=3c_300_SAC_XC Length=11.9821 Units=m
New Line.LINE101_116 Bus1=101_113 Bus2=101_117 phases=3 Linecode=3c_300_SAC_XC Length=11.9821 Units=m
New Line.LINE101_117 Bus1=101_115 Bus2=101_118 phases=3 Linecode=3c_300_SAC_XC Length=0.24574 Units=m
New Line.LINE101_118 Bus1=101_116 Bus2=101_119 phases=3 Linecode=25_SAC_XC Length=6.4739 Units=m
New Line.LINE101_119 Bus1=101_116 Bus2=101_120 phases=3 Linecode=25_SAC_XC Length=9.0685 Units=m
New Line.LINE101_120 Bus1=101_116 Bus2=101_121 phases=3 Linecode=25_SAC_XC Length=9.0685 Units=m
New Line.LINE101_121 Bus1=101_116 Bus2=101_122 phases=3 Linecode=25_SAC_XC Length=9.0685 Units=m
New Line.LINE101_122 Bus1=101_116 Bus2=101_123 phases=3 Linecode=25_SAC_XC Length=9.0685 Units=m
New Line.LINE101_123 Bus1=101_116 Bus2=101_124 phases=3 Linecode=25_SAC_XC Length=9.0685 Units=m
New Line.LINE101_124 Bus1=101_116 Bus2=101_125 phases=3 Linecode=25_SAC_XC Length=9.0685 Units=m
New Line.LINE101_125 Bus1=101_116 Bus2=101_126 phases=3 Linecode=25_SAC_XC Length=9.0685 Units=m
New Line.LINE101_126 Bus1=101_116 Bus2=101_127 phases=3 Linecode=25_SAC_XC Length=9.0685 Units=m
New Line.LINE101_127 Bus1=101_116 Bus2=101_128 phases=3 Linecode=25_SAC_XC Length=9.0685 Units=m
New Line.LINE101_128 Bus1=101_116 Bus2=101_129 phases=3 Linecode=25_SAC_XC Length=9.0685 Units=m
New Line.LINE101_129 Bus1=101_116 Bus2=101_130 phases=3 Linecode=25_SAC_XC Length=9.0685 Units=m
New Line.LINE101_130 Bus1=101_118 Bus2=101_131 phases=3 Linecode=3c_300_SAC_XC Length=0.20904 Units=m
New Line.LINE101_131 Bus1=101_120 Bus2=101_132 phases=3 Linecode=25_SAC_XC Length=10.4913 Units=m
New Line.LINE101_132 Bus1=101_131 Bus2=101_133 phases=3 Linecode=3c_300_SAC_XC Length=0.14658 Units=m
New Line.LINE101_133 Bus1=101_132 Bus2=101_134 phases=3 Linecode=3c_95_SAC_XC Length=0.3118 Units=m
New Line.LINE101_134 Bus1=101_132 Bus2=101_135 phases=3 Linecode=3c_95_SAC_XC Length=0.3118 Units=m
New Line.LINE101_135 Bus1=101_133 Bus2=101_136 phases=3 Linecode=3c_300_SAC_XC Length=0.16498 Units=m
New Line.LINE101_136 Bus1=101_134 Bus2=101_137 phases=3 Linecode=3c_95_SAC_XC Length=0.18147 Units=m
New Line.LINE101_137 Bus1=101_134 Bus2=101_138 phases=3 Linecode=3c_95_SAC_XC Length=0.18147 Units=m
New Line.LINE101_138 Bus1=101_136 Bus2=101_139 phases=3 Linecode=3c_300_SAC_XC Length=0.15212 Units=m
New Line.LINE101_139 Bus1=101_137 Bus2=101_140 phases=3 Linecode=3c_95_SAC_XC Length=0.19 Units=m
New Line.LINE101_140 Bus1=101_137 Bus2=101_141 phases=3 Linecode=3c_95_SAC_XC Length=0.19 Units=m
New Line.LINE101_141 Bus1=101_139 Bus2=101_142 phases=3 Linecode=4c_300_SAC Length=0.17464 Units=m
New Line.LINE101_142 Bus1=101_140 Bus2=101_143 phases=3 Linecode=3c_95_SAC_XC Length=0.23921 Units=m
New Line.LINE101_143 Bus1=101_140 Bus2=101_144 phases=3 Linecode=3c_95_SAC_XC Length=0.23921 Units=m
New Line.LINE101_144 Bus1=101_142 Bus2=101_145 phases=3 Linecode=4c_300_SAC Length=0.15357 Units=m
New Line.LINE101_145 Bus1=101_143 Bus2=101_146 phases=3 Linecode=3c_95_SAC_XC Length=0.28984 Units=m
New Line.LINE101_146 Bus1=101_143 Bus2=101_147 phases=3 Linecode=3c_95_SAC_XC Length=0.28984 Units=m
New Line.LINE101_147 Bus1=101_145 Bus2=101_148 phases=3 Linecode=4c_300_SAC Length=0.20309 Units=m
New Line.LINE101_148 Bus1=101_146 Bus2=101_149 phases=3 Linecode=3c_95_SAC_XC Length=0.135 Units=m
New Line.LINE101_149 Bus1=101_146 Bus2=101_150 phases=3 Linecode=3c_95_SAC_XC Length=0.135 Units=m
New Line.LINE101_150 Bus1=101_148 Bus2=101_151 phases=3 Linecode=4c_300_SAC Length=4.8113 Units=m
New Line.LINE101_151 Bus1=101_149 Bus2=101_152 phases=3 Linecode=3c_95_SAC_XC Length=3.3735 Units=m
New Line.LINE101_152 Bus1=101_149 Bus2=101_153 phases=3 Linecode=3c_95_SAC_XC Length=3.3735 Units=m
New Line.LINE101_153 Bus1=101_151 Bus2=101_154 phases=3 Linecode=3c_300_SAC_XC Length=0.25871 Units=m
New Line.LINE101_154 Bus1=101_152 Bus2=101_155 phases=3 Linecode=3c_95_SAC_XC Length=0.4102 Units=m
New Line.LINE101_155 Bus1=101_152 Bus2=101_156 phases=3 Linecode=3c_95_SAC_XC Length=0.4102 Units=m
New Line.LINE101_156 Bus1=101_154 Bus2=101_157 phases=3 Linecode=3c_300_SAC_XC Length=0.07879 Units=m
New Line.LINE101_157 Bus1=101_155 Bus2=101_158 phases=3 Linecode=3c_95_SAC_XC Length=0.39669 Units=m
New Line.LINE101_158 Bus1=101_155 Bus2=101_159 phases=3 Linecode=3c_95_SAC_XC Length=0.39669 Units=m
New Line.LINE101_159 Bus1=101_157 Bus2=101_160 phases=3 Linecode=3c_300_SAC_XC Length=0.1589 Units=m
New Line.LINE101_160 Bus1=101_158 Bus2=101_161 phases=3 Linecode=3c_95_SAC_XC Length=0.26685 Units=m
New Line.LINE101_161 Bus1=101_158 Bus2=101_162 phases=3 Linecode=3c_95_SAC_XC Length=0.26685 Units=m
New Line.LINE101_162 Bus1=101_160 Bus2=101_163 phases=3 Linecode=3c_300_SAC_XC Length=0.13121 Units=m
New Line.LINE101_163 Bus1=101_161 Bus2=101_164 phases=3 Linecode=3c_95_SAC_XC Length=0.32315 Units=m
New Line.LINE101_164 Bus1=101_161 Bus2=101_165 phases=3 Linecode=3c_95_SAC_XC Length=0.32315 Units=m
New Line.LINE101_165 Bus1=101_163 Bus2=101_166 phases=3 Linecode=3c_300_SAC_XC Length=0.29565 Units=m
New Line.LINE101_166 Bus1=101_164 Bus2=101_167 phases=3 Linecode=3c_95_SAC_XC Length=0.32389 Units=m
New Line.LINE101_167 Bus1=101_164 Bus2=101_168 phases=3 Linecode=3c_95_SAC_XC Length=0.32389 Units=m
New Line.LINE101_168 Bus1=101_166 Bus2=101_169 phases=3 Linecode=3c_300_SAC_XC Length=0.18292 Units=m
New Line.LINE101_169 Bus1=101_167 Bus2=101_170 phases=3 Linecode=3c_95_SAC_XC Length=0.28321 Units=m
New Line.LINE101_170 Bus1=101_167 Bus2=101_171 phases=3 Linecode=3c_95_SAC_XC Length=0.28321 Units=m
New Line.LINE101_171 Bus1=101_169 Bus2=101_172 phases=3 Linecode=3c_300_SAC_XC Length=0.29908 Units=m
New Line.LINE101_172 Bus1=101_170 Bus2=101_173 phases=3 Linecode=3c_95_SAC_XC Length=0.48237 Units=m
New Line.LINE101_173 Bus1=101_170 Bus2=101_174 phases=3 Linecode=3c_95_SAC_XC Length=0.48237 Units=m
New Line.LINE101_174 Bus1=101_172 Bus2=101_175 phases=3 Linecode=3c_300_SAC_XC Length=0.27674 Units=m
New Line.LINE101_175 Bus1=101_173 Bus2=101_176 phases=3 Linecode=3c_95_SAC_XC Length=0.27458 Units=m
New Line.LINE101_176 Bus1=101_173 Bus2=101_177 phases=3 Linecode=3c_95_SAC_XC Length=0.27458 Units=m
New Line.LINE101_177 Bus1=101_175 Bus2=101_178 phases=3 Linecode=3c_300_SAC_XC Length=1.3341 Units=m
New Line.LINE101_178 Bus1=101_176 Bus2=101_179 phases=3 Linecode=3c_95_SAC_XC Length=0.30273 Units=m
New Line.LINE101_179 Bus1=101_176 Bus2=101_180 phases=3 Linecode=3c_95_SAC_XC Length=0.30273 Units=m
New Line.LINE101_180 Bus1=101_178 Bus2=101_181 phases=3 Linecode=3c_300_SAC_XC Length=1.4684 Units=m
New Line.LINE101_181 Bus1=101_178 Bus2=101_182 phases=3 Linecode=4c_300_SAC Length=1.539 Units=m
New Line.LINE101_182 Bus1=101_179 Bus2=101_183 phases=3 Linecode=3c_95_SAC_XC Length=0.36863 Units=m
New Line.LINE101_183 Bus1=101_179 Bus2=101_184 phases=3 Linecode=3c_95_SAC_XC Length=0.36863 Units=m
New Line.LINE101_184 Bus1=101_181 Bus2=101_185 phases=3 Linecode=3c_300_SAC_XC Length=0.66343 Units=m
New Line.LINE101_185 Bus1=101_182 Bus2=101_186 phases=3 Linecode=4c_300_SAC Length=0.51233 Units=m
New Line.LINE101_186 Bus1=101_183 Bus2=101_187 phases=3 Linecode=3c_95_SAC_XC Length=0.42977 Units=m
New Line.LINE101_187 Bus1=101_183 Bus2=101_188 phases=3 Linecode=3c_95_SAC_XC Length=0.42977 Units=m
New Line.LINE101_188 Bus1=101_185 Bus2=101_189 phases=3 Linecode=3c_300_SAC_XC Length=1.2185 Units=m
New Line.LINE101_189 Bus1=101_186 Bus2=101_190 phases=3 Linecode=4c_300_SAC Length=0.6228 Units=m
New Line.LINE101_190 Bus1=101_187 Bus2=101_191 phases=3 Linecode=3c_95_SAC_XC Length=1.2949 Units=m
New Line.LINE101_191 Bus1=101_189 Bus2=101_192 phases=3 Linecode=3c_300_SAC_XC Length=1.7239 Units=m
New Line.LINE101_192 Bus1=101_190 Bus2=101_193 phases=3 Linecode=4c_300_SAC Length=0.48515 Units=m
New Line.LINE101_193 Bus1=101_191 Bus2=101_194 phases=3 Linecode=3c_95_SAC_XC Length=0.47746 Units=m
New Line.LINE101_194 Bus1=101_191 Bus2=101_195 phases=3 Linecode=3c_95_SAC_XC Length=0.47746 Units=m
New Line.LINE101_195 Bus1=101_192 Bus2=101_196 phases=3 Linecode=3c_300_ASN Length=15.0222 Units=m
New Line.LINE101_196 Bus1=101_193 Bus2=101_197 phases=3 Linecode=4c_300_SAC Length=0.53984 Units=m
New Line.LINE101_197 Bus1=101_194 Bus2=101_198 phases=3 Linecode=3c_95_SAC_XC Length=0.10286 Units=m
New Line.LINE101_198 Bus1=101_194 Bus2=101_199 phases=3 Linecode=3c_95_SAC_XC Length=0.10286 Units=m
New Line.LINE101_199 Bus1=101_196 Bus2=101_200 phases=3 Linecode=3c_300_ASN Length=8.8983 Units=m
New Line.LINE101_200 Bus1=101_197 Bus2=101_201 phases=3 Linecode=4c_300_SAC Length=0.4046 Units=m
New Line.LINE101_201 Bus1=101_198 Bus2=101_202 phases=3 Linecode=3c_95_SAC_XC Length=0.122 Units=m
New Line.LINE101_202 Bus1=101_198 Bus2=101_203 phases=3 Linecode=3c_95_SAC_XC Length=0.122 Units=m
New Line.LINE101_203 Bus1=101_200 Bus2=101_204 phases=3 Linecode=3c_300_ASN Length=5.3712 Units=m
New Line.LINE101_204 Bus1=101_201 Bus2=101_205 phases=3 Linecode=4c_300_SAC Length=0.33452 Units=m
New Line.LINE101_205 Bus1=101_202 Bus2=101_206 phases=3 Linecode=3c_95_SAC_XC Length=0.107 Units=m
New Line.LINE101_206 Bus1=101_202 Bus2=101_207 phases=3 Linecode=3c_95_SAC_XC Length=0.107 Units=m
New Line.LINE101_207 Bus1=101_204 Bus2=101_208 phases=3 Linecode=3c_300_ASN Length=0.32965 Units=m
New Line.LINE101_208 Bus1=101_205 Bus2=101_209 phases=3 Linecode=4c_300_SAC Length=1.9733 Units=m
New Line.LINE101_209 Bus1=101_205 Bus2=101_210 phases=3 Linecode=4_PC Length=1.3468 Units=m
New Line.LINE101_210 Bus1=101_205 Bus2=101_211 phases=3 Linecode=4c_.5_SAC Length=13.6807 Units=m
New Line.LINE101_211 Bus1=101_205 Bus2=101_212 phases=3 Linecode=4c_.5_SAC Length=13.6807 Units=m
New Line.LINE101_212 Bus1=101_206 Bus2=101_213 phases=3 Linecode=3c_95_SAC_XC Length=0.12193 Units=m
New Line.LINE101_213 Bus1=101_206 Bus2=101_214 phases=3 Linecode=3c_95_SAC_XC Length=0.12193 Units=m
New Line.LINE101_214 Bus1=101_208 Bus2=101_215 phases=3 Linecode=3c_300_ASN Length=0.24574 Units=m
New Line.LINE101_215 Bus1=101_209 Bus2=101_216 phases=3 Linecode=4c_300_SAC Length=0.77734 Units=m
New Line.LINE101_216 Bus1=101_210 Bus2=101_217 phases=3 Linecode=4_PC Length=0.72533 Units=m
New Line.LINE101_217 Bus1=101_211 Bus2=101_218 phases=3 Linecode=4c_.5_SAC Length=6.1098 Units=m
New Line.LINE101_218 Bus1=101_211 Bus2=101_219 phases=3 Linecode=4c_.5_SAC Length=6.1098 Units=m
New Line.LINE101_219 Bus1=101_213 Bus2=101_220 phases=3 Linecode=3c_95_SAC_XC Length=0.0764 Units=m
New Line.LINE101_220 Bus1=101_213 Bus2=101_221 phases=3 Linecode=3c_95_SAC_XC Length=0.0764 Units=m
New Line.LINE101_221 Bus1=101_215 Bus2=101_222 phases=3 Linecode=3c_300_ASN Length=0.16105 Units=m
New Line.LINE101_222 Bus1=101_216 Bus2=101_223 phases=3 Linecode=4c_300_SAC Length=0.52851 Units=m
New Line.LINE101_223 Bus1=101_217 Bus2=101_224 phases=3 Linecode=4_PC Length=0.37797 Units=m
New Line.LINE101_224 Bus1=101_218 Bus2=101_225 phases=3 Linecode=4c_.5_SAC Length=0.21789 Units=m
New Line.LINE101_225 Bus1=101_218 Bus2=101_226 phases=3 Linecode=4c_.5_SAC Length=0.21789 Units=m
New Line.LINE101_226 Bus1=101_220 Bus2=101_227 phases=3 Linecode=3c_95_SAC_XC Length=0.15061 Units=m
New Line.LINE101_227 Bus1=101_220 Bus2=101_228 phases=3 Linecode=3c_95_SAC_XC Length=0.15061 Units=m
New Line.LINE101_228 Bus1=101_222 Bus2=101_229 phases=3 Linecode=3c_300_ASN Length=0.17376 Units=m
New Line.LINE101_229 Bus1=101_223 Bus2=101_230 phases=3 Linecode=4c_300_SAC Length=0.305 Units=m
New Line.LINE101_230 Bus1=101_224 Bus2=101_231 phases=3 Linecode=4_PC Length=0.23131 Units=m
New Line.LINE101_231 Bus1=101_225 Bus2=101_232 phases=3 Linecode=4_PC Length=0.27963 Units=m
New Line.LINE101_232 Bus1=101_227 Bus2=101_233 phases=3 Linecode=3c_95_SAC_XC Length=0.21924 Units=m
New Line.LINE101_233 Bus1=101_227 Bus2=101_234 phases=3 Linecode=3c_95_SAC_XC Length=0.21924 Units=m
New Line.LINE101_234 Bus1=101_229 Bus2=101_235 phases=3 Linecode=3c_300_ASN Length=1.2629 Units=m
New Line.LINE101_235 Bus1=101_230 Bus2=101_236 phases=3 Linecode=4c_300_SAC Length=0.88206 Units=m
New Line.LINE101_236 Bus1=101_231 Bus2=101_237 phases=3 Linecode=2c_.007 Length=0.35715 Units=m
New Line.LINE101_237 Bus1=101_231 Bus2=101_238 phases=3 Linecode=4_PC Length=0.19028 Units=m
New Line.LINE101_238 Bus1=101_232 Bus2=101_239 phases=3 Linecode=4_PC Length=1.3434 Units=m
New Line.LINE101_239 Bus1=101_233 Bus2=101_240 phases=3 Linecode=3c_95_SAC_XC Length=0.054084 Units=m
New Line.LINE101_240 Bus1=101_235 Bus2=101_241 phases=3 Linecode=25_SAC_XC Length=36.3848 Units=m
New Line.LINE101_241 Bus1=101_235 Bus2=101_242 phases=3 Linecode=25_SAC_XC Length=36.3848 Units=m
New Line.LINE101_242 Bus1=101_235 Bus2=101_243 phases=3 Linecode=25_SAC_XC Length=36.3848 Units=m
New Line.LINE101_243 Bus1=101_235 Bus2=101_244 phases=3 Linecode=25_SAC_XC Length=36.3848 Units=m
New Line.LINE101_244 Bus1=101_235 Bus2=101_245 phases=3 Linecode=25_SAC_XC Length=36.3848 Units=m
New Line.LINE101_245 Bus1=101_235 Bus2=101_246 phases=3 Linecode=25_SAC_XC Length=36.3848 Units=m
New Line.LINE101_246 Bus1=101_235 Bus2=101_247 phases=3 Linecode=25_SAC_XC Length=36.3848 Units=m
New Line.LINE101_247 Bus1=101_235 Bus2=101_248 phases=3 Linecode=25_SAC_XC Length=15.8156 Units=m
New Line.LINE101_248 Bus1=101_236 Bus2=101_249 phases=3 Linecode=4c_300_SAC Length=0.86069 Units=m
New Line.LINE101_249 Bus1=101_237 Bus2=101_250 phases=3 Linecode=2c_.007 Length=0.27583 Units=m
New Line.LINE101_250 Bus1=101_238 Bus2=101_251 phases=3 Linecode=4_PC Length=0.1983 Units=m
New Line.LINE101_251 Bus1=101_239 Bus2=101_252 phases=3 Linecode=4_PC Length=0.36447 Units=m
New Line.LINE101_252 Bus1=101_240 Bus2=101_253 phases=3 Linecode=3c_95_SAC_XC Length=0.21833 Units=m
New Line.LINE101_253 Bus1=101_249 Bus2=101_254 phases=3 Linecode=4c_300_SAC Length=1.0735 Units=m
New Line.LINE101_254 Bus1=101_250 Bus2=101_255 phases=3 Linecode=2c_.007 Length=0.24052 Units=m
New Line.LINE101_255 Bus1=101_251 Bus2=101_256 phases=3 Linecode=4_PC Length=0.13038 Units=m
New Line.LINE101_256 Bus1=101_252 Bus2=101_257 phases=3 Linecode=4_PC Length=0.35786 Units=m
New Line.LINE101_257 Bus1=101_253 Bus2=101_258 phases=3 Linecode=3c_95_SAC_XC Length=0.27601 Units=m
New Line.LINE101_258 Bus1=101_254 Bus2=101_259 phases=3 Linecode=4c_300_SAC Length=0.27869 Units=m
New Line.LINE101_259 Bus1=101_255 Bus2=101_260 phases=3 Linecode=2c_.007 Length=5.3091 Units=m
New Line.LINE101_260 Bus1=101_256 Bus2=101_261 phases=3 Linecode=4_PC Length=0.071281 Units=m
New Line.LINE101_261 Bus1=101_257 Bus2=101_262 phases=3 Linecode=4_PC Length=0.29624 Units=m
New Line.LINE101_262 Bus1=101_258 Bus2=101_263 phases=3 Linecode=4c_.5 Length=3.2739 Units=m
New Line.LINE101_263 Bus1=101_258 Bus2=101_264 phases=3 Linecode=4c_.5 Length=0.57254 Units=m
New Line.LINE101_264 Bus1=101_258 Bus2=101_265 phases=3 Linecode=4c_.5 Length=3.2739 Units=m
New Line.LINE101_265 Bus1=101_258 Bus2=101_266 phases=3 Linecode=4c_.5 Length=0.57254 Units=m
New Line.LINE101_266 Bus1=101_259 Bus2=101_267 phases=3 Linecode=4c_300_SAC Length=1.2102 Units=m
New Line.LINE101_267 Bus1=101_260 Bus2=101_268 phases=3 Linecode=2c_.007 Length=0.31619 Units=m
New Line.LINE101_268 Bus1=101_261 Bus2=101_269 phases=3 Linecode=4_PC Length=0.149 Units=m
New Line.LINE101_269 Bus1=101_262 Bus2=101_270 phases=3 Linecode=4_PC Length=0.56819 Units=m
New Line.LINE101_270 Bus1=101_263 Bus2=101_271 phases=3 Linecode=4c_.5 Length=0.84183 Units=m
New Line.LINE101_271 Bus1=101_263 Bus2=101_272 phases=3 Linecode=4c_.5 Length=0.84183 Units=m
New Line.LINE101_272 Bus1=101_264 Bus2=101_273 phases=3 Linecode=4c_.5 Length=0.40579 Units=m
New Line.LINE101_273 Bus1=101_264 Bus2=101_274 phases=3 Linecode=4c_.5 Length=0.40579 Units=m
New Line.LINE101_274 Bus1=101_267 Bus2=101_275 phases=3 Linecode=4c_300_SAC Length=0.96223 Units=m
New Line.LINE101_275 Bus1=101_268 Bus2=101_276 phases=3 Linecode=2c_.007 Length=0.32311 Units=m
New Line.LINE101_276 Bus1=101_269 Bus2=101_277 phases=3 Linecode=4_PC Length=0.24816 Units=m
New Line.LINE101_277 Bus1=101_270 Bus2=101_278 phases=3 Linecode=4_PC Length=0.61319 Units=m
New Line.LINE101_278 Bus1=101_271 Bus2=101_279 phases=3 Linecode=4c_.5 Length=0.55172 Units=m
New Line.LINE101_279 Bus1=101_271 Bus2=101_280 phases=3 Linecode=4c_.5 Length=0.55172 Units=m
New Line.LINE101_280 Bus1=101_273 Bus2=101_281 phases=3 Linecode=4c_.5 Length=0.39897 Units=m
New Line.LINE101_281 Bus1=101_273 Bus2=101_282 phases=3 Linecode=4c_.5 Length=0.39897 Units=m
New Line.LINE101_282 Bus1=101_275 Bus2=101_283 phases=3 Linecode=4c_300_SAC Length=0.29833 Units=m
New Line.LINE101_283 Bus1=101_276 Bus2=101_284 phases=3 Linecode=2c_.007 Length=0.19037 Units=m
New Line.LINE101_284 Bus1=101_277 Bus2=101_285 phases=3 Linecode=4_PC Length=0.47213 Units=m
New Line.LINE101_285 Bus1=101_279 Bus2=101_286 phases=3 Linecode=4c_.5 Length=0.405 Units=m
New Line.LINE101_286 Bus1=101_279 Bus2=101_287 phases=3 Linecode=4c_.5 Length=0.405 Units=m
New Line.LINE101_287 Bus1=101_281 Bus2=101_288 phases=3 Linecode=4c_.5 Length=0.3806 Units=m
New Line.LINE101_288 Bus1=101_281 Bus2=101_289 phases=3 Linecode=4c_.5 Length=0.3806 Units=m
New Line.LINE101_289 Bus1=101_283 Bus2=101_290 phases=3 Linecode=4c_.05 Length=7.376 Units=m
New Line.LINE101_290 Bus1=101_283 Bus2=101_291 phases=3 Linecode=4c_.5 Length=1.2802 Units=m
New Line.LINE101_291 Bus1=101_283 Bus2=101_292 phases=3 Linecode=4c_.5 Length=1.2802 Units=m
New Line.LINE101_292 Bus1=101_284 Bus2=101_293 phases=3 Linecode=2c_.007 Length=0.17619 Units=m
New Line.LINE101_293 Bus1=101_285 Bus2=101_294 phases=3 Linecode=4_PC Length=0.62426 Units=m
New Line.LINE101_294 Bus1=101_286 Bus2=101_295 phases=3 Linecode=4c_.5 Length=0.46208 Units=m
New Line.LINE101_295 Bus1=101_286 Bus2=101_296 phases=3 Linecode=4c_.5 Length=0.46208 Units=m
New Line.LINE101_296 Bus1=101_288 Bus2=101_297 phases=3 Linecode=4c_.5 Length=0.34078 Units=m
New Line.LINE101_297 Bus1=101_288 Bus2=101_298 phases=3 Linecode=4c_.5 Length=0.34078 Units=m
New Line.LINE101_298 Bus1=101_290 Bus2=101_299 phases=3 Linecode=4c_.05 Length=2.5691 Units=m
New Line.LINE101_299 Bus1=101_291 Bus2=101_300 phases=3 Linecode=4c_.5 Length=2.5782 Units=m
New Line.LINE101_300 Bus1=101_291 Bus2=101_301 phases=3 Linecode=4c_.5 Length=2.5782 Units=m
New Line.LINE101_301 Bus1=101_293 Bus2=101_302 phases=3 Linecode=2c_.007 Length=0.20494 Units=m
New Line.LINE101_302 Bus1=101_295 Bus2=101_303 phases=3 Linecode=4c_.5 Length=0.238 Units=m
New Line.LINE101_303 Bus1=101_295 Bus2=101_304 phases=3 Linecode=4c_.5 Length=0.238 Units=m
New Line.LINE101_304 Bus1=101_297 Bus2=101_305 phases=3 Linecode=4c_.5 Length=0.35746 Units=m
New Line.LINE101_305 Bus1=101_297 Bus2=101_306 phases=3 Linecode=4c_.5 Length=0.35746 Units=m
New Line.LINE101_306 Bus1=101_299 Bus2=101_307 phases=3 Linecode=4c_.05 Length=0.20506 Units=m
New Line.LINE101_307 Bus1=101_300 Bus2=101_308 phases=3 Linecode=4c_.5 Length=8.758 Units=m
New Line.LINE101_308 Bus1=101_300 Bus2=101_309 phases=3 Linecode=4c_.5 Length=8.758 Units=m
New Line.LINE101_309 Bus1=101_302 Bus2=101_310 phases=3 Linecode=4 Length=0.19226 Units=m
New Line.LINE101_310 Bus1=101_303 Bus2=101_311 phases=3 Linecode=4c_.5 Length=0.143 Units=m
New Line.LINE101_311 Bus1=101_303 Bus2=101_312 phases=3 Linecode=4c_.5 Length=0.143 Units=m
New Line.LINE101_312 Bus1=101_305 Bus2=101_313 phases=3 Linecode=4c_.5 Length=0.51405 Units=m
New Line.LINE101_313 Bus1=101_305 Bus2=101_314 phases=3 Linecode=4c_.5 Length=0.51405 Units=m
New Line.LINE101_314 Bus1=101_307 Bus2=101_315 phases=3 Linecode=4c_.05 Length=0.25122 Units=m
New Line.LINE101_315 Bus1=101_308 Bus2=101_316 phases=3 Linecode=4c_.5 Length=0.095001 Units=m
New Line.LINE101_316 Bus1=101_308 Bus2=101_317 phases=3 Linecode=4c_.5 Length=0.095001 Units=m
New Line.LINE101_317 Bus1=101_310 Bus2=101_318 phases=3 Linecode=4 Length=0.11314 Units=m
New Line.LINE101_318 Bus1=101_311 Bus2=101_319 phases=3 Linecode=4c_.5 Length=6.3622 Units=m
New Line.LINE101_319 Bus1=101_311 Bus2=101_320 phases=3 Linecode=4c_.5 Length=6.3622 Units=m
New Line.LINE101_320 Bus1=101_313 Bus2=101_321 phases=3 Linecode=4c_.5 Length=0.4908 Units=m
New Line.LINE101_321 Bus1=101_313 Bus2=101_322 phases=3 Linecode=4c_.5 Length=0.4908 Units=m
New Line.LINE101_322 Bus1=101_315 Bus2=101_323 phases=3 Linecode=4c_.05 Length=0.22624 Units=m
New Line.LINE101_323 Bus1=101_316 Bus2=101_324 phases=3 Linecode=4c_.5 Length=0.283 Units=m
New Line.LINE101_324 Bus1=101_316 Bus2=101_325 phases=3 Linecode=4c_.5 Length=0.283 Units=m
New Line.LINE101_325 Bus1=101_318 Bus2=101_326 phases=3 Linecode=4 Length=0.14389 Units=m
New Line.LINE101_326 Bus1=101_319 Bus2=101_327 phases=3 Linecode=4c_.5 Length=11.3613 Units=m
New Line.LINE101_327 Bus1=101_319 Bus2=101_328 phases=3 Linecode=4c_.5 Length=11.3613 Units=m
New Line.LINE101_328 Bus1=101_321 Bus2=101_329 phases=3 Linecode=4c_.5 Length=0.397 Units=m
New Line.LINE101_329 Bus1=101_321 Bus2=101_330 phases=3 Linecode=4c_.5 Length=0.397 Units=m
New Line.LINE101_330 Bus1=101_323 Bus2=101_331 phases=3 Linecode=4c_.05 Length=0.16932 Units=m
New Line.LINE101_331 Bus1=101_324 Bus2=101_332 phases=3 Linecode=4c_.5 Length=0.21324 Units=m
New Line.LINE101_332 Bus1=101_324 Bus2=101_333 phases=3 Linecode=4c_.5 Length=0.21324 Units=m
New Line.LINE101_333 Bus1=101_326 Bus2=101_334 phases=3 Linecode=4 Length=0.15037 Units=m
New Line.LINE101_334 Bus1=101_327 Bus2=101_335 phases=3 Linecode=4c_.5 Length=0.25843 Units=m
New Line.LINE101_335 Bus1=101_327 Bus2=101_336 phases=3 Linecode=4c_.5 Length=0.25843 Units=m
New Line.LINE101_336 Bus1=101_329 Bus2=101_337 phases=3 Linecode=4c_.5 Length=0.47593 Units=m
New Line.LINE101_337 Bus1=101_329 Bus2=101_338 phases=3 Linecode=4c_.5 Length=0.47593 Units=m
New Line.LINE101_338 Bus1=101_331 Bus2=101_339 phases=3 Linecode=4c_.05 Length=0.17418 Units=m
New Line.LINE101_339 Bus1=101_332 Bus2=101_340 phases=3 Linecode=4c_.5 Length=0.33755 Units=m
New Line.LINE101_340 Bus1=101_332 Bus2=101_341 phases=3 Linecode=4c_.5 Length=0.33755 Units=m
New Line.LINE101_341 Bus1=101_334 Bus2=101_342 phases=3 Linecode=4 Length=0.285 Units=m
New Line.LINE101_342 Bus1=101_335 Bus2=101_343 phases=3 Linecode=4c_.5 Length=0.21983 Units=m
New Line.LINE101_343 Bus1=101_335 Bus2=101_344 phases=3 Linecode=4c_.5 Length=0.21983 Units=m
New Line.LINE101_344 Bus1=101_337 Bus2=101_345 phases=3 Linecode=4c_.5 Length=3.409 Units=m
New Line.LINE101_345 Bus1=101_337 Bus2=101_346 phases=3 Linecode=4c_.5 Length=3.409 Units=m
New Line.LINE101_346 Bus1=101_339 Bus2=101_347 phases=3 Linecode=4c_.05 Length=0.21844 Units=m
New Line.LINE101_347 Bus1=101_340 Bus2=101_348 phases=3 Linecode=4c_.5 Length=0.31058 Units=m
New Line.LINE101_348 Bus1=101_340 Bus2=101_349 phases=3 Linecode=4c_.5 Length=0.31058 Units=m
New Line.LINE101_349 Bus1=101_343 Bus2=101_350 phases=3 Linecode=4c_.5 Length=0.29255 Units=m
New Line.LINE101_350 Bus1=101_343 Bus2=101_351 phases=3 Linecode=4c_.5 Length=0.29255 Units=m
New Line.LINE101_351 Bus1=101_345 Bus2=101_352 phases=3 Linecode=4c_.5 Length=0.42805 Units=m
New Line.LINE101_352 Bus1=101_345 Bus2=101_353 phases=3 Linecode=4c_.5 Length=0.42805 Units=m
New Line.LINE101_353 Bus1=101_347 Bus2=101_354 phases=3 Linecode=4c_.05 Length=5.1398 Units=m
New Line.LINE101_354 Bus1=101_348 Bus2=101_355 phases=3 Linecode=4c_.5 Length=0.1894 Units=m
New Line.LINE101_355 Bus1=101_348 Bus2=101_356 phases=3 Linecode=4c_.5 Length=0.1894 Units=m
New Line.LINE101_356 Bus1=101_350 Bus2=101_357 phases=3 Linecode=4c_.5 Length=0.30418 Units=m
New Line.LINE101_357 Bus1=101_350 Bus2=101_358 phases=3 Linecode=4c_.5 Length=0.30418 Units=m
New Line.LINE101_358 Bus1=101_352 Bus2=101_359 phases=3 Linecode=4c_.5 Length=0.26305 Units=m
New Line.LINE101_359 Bus1=101_352 Bus2=101_360 phases=3 Linecode=4c_.5 Length=0.26305 Units=m
New Line.LINE101_360 Bus1=101_354 Bus2=101_361 phases=3 Linecode=4c_.05 Length=1.1126 Units=m
New Line.LINE101_361 Bus1=101_355 Bus2=101_362 phases=3 Linecode=4c_.5 Length=13.8731 Units=m
New Line.LINE101_362 Bus1=101_355 Bus2=101_363 phases=3 Linecode=4c_.5 Length=13.8731 Units=m
New Line.LINE101_363 Bus1=101_357 Bus2=101_364 phases=3 Linecode=4c_.5 Length=0.40826 Units=m
New Line.LINE101_364 Bus1=101_357 Bus2=101_365 phases=3 Linecode=4c_.5 Length=0.40826 Units=m
New Line.LINE101_365 Bus1=101_359 Bus2=101_366 phases=3 Linecode=4c_.5 Length=0.6064 Units=m
New Line.LINE101_366 Bus1=101_359 Bus2=101_367 phases=3 Linecode=4c_.5 Length=0.6064 Units=m
New Line.LINE101_367 Bus1=101_362 Bus2=101_368 phases=3 Linecode=4c_.5 Length=2.23 Units=m
New Line.LINE101_368 Bus1=101_362 Bus2=101_369 phases=3 Linecode=4c_.5 Length=2.23 Units=m
New Line.LINE101_369 Bus1=101_364 Bus2=101_370 phases=3 Linecode=4c_.5 Length=0.39232 Units=m
New Line.LINE101_370 Bus1=101_364 Bus2=101_371 phases=3 Linecode=4c_.5 Length=0.39232 Units=m
New Line.LINE101_371 Bus1=101_366 Bus2=101_372 phases=3 Linecode=4c_.5 Length=0.27541 Units=m
New Line.LINE101_372 Bus1=101_366 Bus2=101_373 phases=3 Linecode=4c_.5 Length=0.27541 Units=m
New Line.LINE101_373 Bus1=101_368 Bus2=101_374 phases=3 Linecode=4c_.5 Length=1.8685 Units=m
New Line.LINE101_374 Bus1=101_368 Bus2=101_375 phases=3 Linecode=4c_.5 Length=1.8685 Units=m
New Line.LINE101_375 Bus1=101_370 Bus2=101_376 phases=3 Linecode=4c_.5 Length=0.4362 Units=m
New Line.LINE101_376 Bus1=101_370 Bus2=101_377 phases=3 Linecode=4c_.5 Length=0.4362 Units=m
New Line.LINE101_377 Bus1=101_372 Bus2=101_378 phases=3 Linecode=4c_.5 Length=0.32 Units=m
New Line.LINE101_378 Bus1=101_372 Bus2=101_379 phases=3 Linecode=4c_.5 Length=0.32 Units=m
New Line.LINE101_379 Bus1=101_374 Bus2=101_380 phases=3 Linecode=4c_.5 Length=1.9047 Units=m
New Line.LINE101_380 Bus1=101_374 Bus2=101_381 phases=3 Linecode=4c_.5 Length=1.9047 Units=m
New Line.LINE101_381 Bus1=101_378 Bus2=101_382 phases=3 Linecode=4c_300_SAC Length=2.1405 Units=m
