Test_Network/condensed/network_10/Feeder_1/LoadsCopyUnq.txt
New Load.LOAD101_1 Phases=1 Bus1=101_119.1 kV=0.23 kW=1 PF=0.95
New Load.LOAD101_2 Phases=1 Bus1=101_120.2 kV=0.23 kW=1 PF=0.95
New Load.LOAD101_3 Phases=1 Bus1=101_121.3 kV=0.23 kW=1 PF=0.95
New Load.LOAD101_4 Phases=1 Bus1=101_122.1 kV=0.23 kW=1 PF=0.95
New Load.LOAD101_5 Phases=1 Bus1=101_123.2 kV=0.23 kW=1 PF=0.95
New Load.LOAD101_6 Phases=1 Bus1=101_124.3 kV=0.23 kW=1 PF=0.95
New Load.LOAD101_7 Phases=1 Bus1=101_125.1 kV=0.23 kW=1 PF=0.95
New Load.LOAD101_8 Phases=1 Bus1=101_126.2 kV=0.23 kW=1 PF=0.95
New Load.LOAD101_9 Phases=1 Bus1=101_127.3 kV=0.23 kW=1 PF=0.95
New Load.LOAD101_10 Phases=1 Bus1=101_128.1 kV=0.23 kW=1 PF=0.95
New Load.LOAD101_11 Phases=1 Bus1=101_129.2 kV=0.23 kW=1 PF=0.95
New Load.LOAD101_12 Phases=1 Bus1=101_130.3 kV=0.23 kW=1 PF=0.95
New Load.LOAD101_13 Phases=1 Bus1=101_132.2 kV=0.23 kW=1 PF=0.95
New Load.LOAD101_14 Phases=1 Bus1=101_241.1 kV=0.23 kW=1 PF=0.95
New Load.LOAD101_15 Phases=1 Bus1=101_242.2 kV=0.23 kW=1 PF=0.95
New Load.LOAD101_16 Phases=1 Bus1=101_243.3 kV=0.23 kW=1 PF=0.95
New Load.LOAD101_17 Phases=1 Bus1=101_244.1 kV=0.23 kW=1 PF=0.95
New Load.LOAD101_18 Phases=1 Bus1=101_245.2 kV=0.23 kW=1 PF=0.95
New Load.LOAD101_19 Phases=1 Bus1=101_246.3 kV=0.23 kW=1 PF=0.95
New Load.LOAD101_20 Phases=1 Bus1=101_247.1 kV=0.23 kW=1 PF=0.95
New Load.LOAD101_21 Phases=1 Bus1=101_248.2 kV=0.23 kW=1 PF=0.95
