Test_Network/condensed/network_10/Feeder_2/LinesUnq.txt
New Line.LINE102_1 Bus1=102_1 Bus2=102_2 phases=3 Linecode=3c_300_SAC_XC Length=0.75199 Units=m
New Line.LINE102_2 Bus1=102_1 Bus2=102_3 phases=3 Linecode=25_SAC_XC Length=14.093 Units=m
New Line.LINE102_3 Bus1=102_2 Bus2=102_4 phases=3 Linecode=3c_300_SAC_XC Length=0.23516 Units=m
New Line.LINE102_4 Bus1=102_4 Bus2=102_5 phases=3 Linecode=3c_300_SAC_XC Length=0.17616 Units=m
New Line.LINE102_5 Bus1=102_5 Bus2=102_6 phases=3 Linecode=3c_300_SAC_XC Length=0.38944 Units=m
New Line.LINE102_6 Bus1=102_6 Bus2=102_7 phases=3 Linecode=3c_300_SAC_XC Length=1.3716 Units=m
New Line.LINE102_7 Bus1=102_7 Bus2=102_8 phases=3 Linecode=3c_300_SAC_XC Length=0.86204 Units=m
New Line.LINE102_8 Bus1=102_8 Bus2=102_9 phases=3 Linecode=3c_300_SAC_XC Length=0.14865 Units=m
New Line.LINE102_9 Bus1=102_9 Bus2=102_10 phases=3 Linecode=3c_300_SAC_XC Length=0.14812 Units=m
New Line.LINE102_10 Bus1=102_10 Bus2=102_11 phases=3 Linecode=3c_300_SAC_XC Length=0.1492 Units=m
New Line.LINE102_11 Bus1=102_11 Bus2=102_12 phases=3 Linecode=3c_300_SAC_XC Length=0.14866 Units=m
New Line.LINE102_12 Bus1=102_12 Bus2=102_13 phases=3 Linecode=3c_300_SAC_XC Length=0.14825 Units=m
New Line.LINE102_13 Bus1=102_13 Bus2=102_14 phases=3 Linecode=3c_300_SAC_XC Length=0.14828 Units=m
New Line.LINE102_14 Bus1=102_14 Bus2=102_15 phases=3 Linecode=3c_300_SAC_XC Length=0.14905 Units=m
New Line.LINE102_15 Bus1=102_15 Bus2=102_16 phases=3 Linecode=3c_300_SAC_XC Length=0.14879 Units=m
New Line.LINE102_16 Bus1=102_16 Bus2=102_17 phases=3 Linecode=3c_300_SAC_XC Length=3.7031 Units=m
New Line.LINE102_17 Bus1=102_17 Bus2=102_18 phases=3 Linecode=3c_300_SAC_XC Length=0.88874 Units=m
New Line.LINE102_18 Bus1=102_18 Bus2=102_19 phases=3 Linecode=3c_300_SAC_XC Length=2.9816 Units=m
New Line.LINE102_19 Bus1=102_19 Bus2=102_20 phases=3 Linecode=3c_300_SAC_XC Length=1.0812 Units=m
New Line.LINE102_20 Bus1=102_20 Bus2=102_21 phases=3 Linecode=3c_300_SAC_XC Length=4.7709 Units=m
New Line.LINE102_21 Bus1=102_21 Bus2=102_22 phases=3 Linecode=3c_300_SAC_XC Length=2.9291 Units=m
New Line.LINE102_22 Bus1=102_22 Bus2=102_23 phases=3 Linecode=3c_300_SAC_XC Length=3.1156 Units=m
New Line.LINE102_23 Bus1=102_23 Bus2=102_24 phases=3 Linecode=3c_300_SAC_XC Length=2.6572 Units=m
New Line.LINE102_24 Bus1=102_24 Bus2=102_25 phases=3 Linecode=3c_300_SAC_XC Length=0.24921 Units=m
New Line.LINE102_25 Bus1=102_24 Bus2=102_26 phases=3 Linecode=4c_300_SAC Length=0.1425 Units=m
New Line.LINE102_26 Bus1=102_24 Bus2=102_27 phases=3 Linecode=4c_.5_SAC Length=0.14529 Units=m
New Line.LINE102_27 Bus1=102_25 Bus2=102_28 phases=3 Linecode=3c_300_SAC_XC Length=2.0366 Units=m
New Line.LINE102_28 Bus1=102_26 Bus2=102_29 phases=3 Linecode=4c_300_SAC Length=0.10121 Units=m
New Line.LINE102_29 Bus1=102_27 Bus2=102_30 phases=3 Linecode=4c_.5_SAC Length=0.12938 Units=m
New Line.LINE102_30 Bus1=102_28 Bus2=102_31 phases=3 Linecode=3c_300_SAC_XC Length=1.7141 Units=m
New Line.LINE102_31 Bus1=102_29 Bus2=102_32 phases=3 Linecode=4c_300_SAC Length=0.12356 Units=m
New Line.LINE102_32 Bus1=102_30 Bus2=102_33 phases=3 Linecode=4c_.5_SAC Length=0.098681 Units=m
New Line.LINE102_33 Bus1=102_31 Bus2=102_34 phases=3 Linecode=4c_300_SAC Length=1.4061 Units=m
New Line.LINE102_34 Bus1=102_32 Bus2=102_35 phases=3 Linecode=4c_300_SAC Length=0.11353 Units=m
New Line.LINE102_35 Bus1=102_33 Bus2=102_36 phases=3 Linecode=4c_.5_SAC Length=0.13283 Units=m
New Line.LINE102_36 Bus1=102_34 Bus2=102_37 phases=3 Linecode=4c_300_SAC Length=2.5245 Units=m
New Line.LINE102_37 Bus1=102_35 Bus2=102_38 phases=3 Linecode=4c_300_SAC Length=0.13577 Units=m
New Line.LINE102_38 Bus1=102_36 Bus2=102_39 phases=3 Linecode=4c_.5_SAC Length=0.109 Units=m
New Line.LINE102_39 Bus1=102_37 Bus2=102_40 phases=3 Linecode=4c_300_SAC Length=0.43503 Units=m
New Line.LINE102_40 Bus1=102_38 Bus2=102_41 phases=3 Linecode=4c_300_SAC Length=0.38486 Units=m
New Line.LINE102_41 Bus1=102_39 Bus2=102_42 phases=3 Linecode=4c_.5_SAC Length=0.14828 Units=m
New Line.LINE102_42 Bus1=102_40 Bus2=102_43 phases=3 Linecode=4c_300_SAC Length=0.586 Units=m
New Line.LINE102_43 Bus1=102_41 Bus2=102_44 phases=3 Linecode=4c_300_SAC Length=0.27164 Units=m
New Line.LINE102_44 Bus1=102_42 Bus2=102_45 phases=3 Linecode=4c_.5_SAC Length=0.26848 Units=m
New Line.LINE102_45 Bus1=102_43 Bus2=102_46 phases=3 Linecode=4c_300_SAC Length=0.67548 Units=m
New Line.LINE102_46 Bus1=102_44 Bus2=102_47 phases=3 Linecode=4c_300_SAC Length=0.24824 Units=m
New Line.LINE102_47 Bus1=102_45 Bus2=102_48 phases=3 Linecode=4c_.5_SAC Length=1.6219 Units=m
New Line.LINE102_48 Bus1=102_46 Bus2=102_49 phases=3 Linecode=4c_.5 Length=0.34383 Units=m
New Line.LINE102_49 Bus1=102_47 Bus2=102_50 phases=3 Linecode=4c_300_SAC Length=0.26405 Units=m
New Line.LINE102_50 Bus1=102_48 Bus2=102_51 phases=3 Linecode=4c_300_SAC Length=3.3886 Units=m
New Line.LINE102_51 Bus1=102_49 Bus2=102_52 phases=3 Linecode=4c_.5 Length=0.29854 Units=m
New Line.LINE102_52 Bus1=102_50 Bus2=102_53 phases=3 Linecode=4c_300_SAC Length=0.1578 Units=m
New Line.LINE102_53 Bus1=102_51 Bus2=102_54 phases=3 Linecode=4c_300_SAC Length=2.2898 Units=m
New Line.LINE102_54 Bus1=102_52 Bus2=102_55 phases=3 Linecode=4c_.5 Length=0.26964 Units=m
New Line.LINE102_55 Bus1=102_53 Bus2=102_56 phases=3 Linecode=4c_300_SAC Length=0.15148 Units=m
New Line.LINE102_56 Bus1=102_54 Bus2=102_57 phases=3 Linecode=4c_300_SAC Length=0.48484 Units=m
New Line.LINE102_57 Bus1=102_55 Bus2=102_58 phases=3 Linecode=4c_.5 Length=0.63295 Units=m
New Line.LINE102_58 Bus1=102_56 Bus2=102_59 phases=3 Linecode=4c_300_SAC Length=0.09993 Units=m
New Line.LINE102_59 Bus1=102_57 Bus2=102_60 phases=3 Linecode=4c_300_SAC Length=0.16574 Units=m
New Line.LINE102_60 Bus1=102_58 Bus2=102_61 phases=3 Linecode=4c_.5 Length=1.288 Units=m
New Line.LINE102_61 Bus1=102_60 Bus2=102_62 phases=3 Linecode=4c_300_SAC Length=0.14916 Units=m
New Line.LINE102_62 Bus1=102_61 Bus2=102_63 phases=3 Linecode=4c_.5 Length=4.6078 Units=m
New Line.LINE102_63 Bus1=102_62 Bus2=102_64 phases=3 Linecode=4c_300_SAC Length=0.15852 Units=m
New Line.LINE102_64 Bus1=102_63 Bus2=102_65 phases=3 Linecode=4c_.5 Length=0.045188 Units=m
New Line.LINE102_65 Bus1=102_64 Bus2=102_66 phases=3 Linecode=4c_300_SAC Length=0.22304 Units=m
New Line.LINE102_66 Bus1=102_65 Bus2=102_67 phases=3 Linecode=4c_.5 Length=0.040226 Units=m
New Line.LINE102_67 Bus1=102_66 Bus2=102_68 phases=3 Linecode=4c_300_SAC Length=0.32319 Units=m
New Line.LINE102_68 Bus1=102_67 Bus2=102_69 phases=3 Linecode=4c_.5 Length=0.066029 Units=m
New Line.LINE102_69 Bus1=102_68 Bus2=102_70 phases=3 Linecode=4c_.5 Length=0.16638 Units=m
New Line.LINE102_70 Bus1=102_69 Bus2=102_71 phases=3 Linecode=4c_.5 Length=0.047297 Units=m
New Line.LINE102_71 Bus1=102_70 Bus2=102_72 phases=3 Linecode=4c_.5 Length=5.0738 Units=m
New Line.LINE102_72 Bus1=102_71 Bus2=102_73 phases=3 Linecode=4c_.5 Length=0.035128 Units=m
New Line.LINE102_73 Bus1=102_72 Bus2=102_74 phases=3 Linecode=4c_.5 Length=0.1784 Units=m
New Line.LINE102_74 Bus1=102_73 Bus2=102_75 phases=3 Linecode=4c_.5 Length=0.050695 Units=m
New Line.LINE102_75 Bus1=102_74 Bus2=102_76 phases=3 Linecode=4c_.5 Length=0.16105 Units=m
New Line.LINE102_76 Bus1=102_75 Bus2=102_77 phases=3 Linecode=4c_.5 Length=4.4979 Units=m
New Line.LINE102_77 Bus1=102_76 Bus2=102_78 phases=3 Linecode=4c_.5 Length=0.207 Units=m
New Line.LINE102_78 Bus1=102_77 Bus2=102_79 phases=3 Linecode=4c_.5 Length=11.1133 Units=m
New Line.LINE102_79 Bus1=102_78 Bus2=102_80 phases=3 Linecode=4c_.5 Length=0.17899 Units=m
New Line.LINE102_80 Bus1=102_79 Bus2=102_81 phases=3 Linecode=4c_.5 Length=0.17429 Units=m
New Line.LINE102_81 Bus1=102_79 Bus2=102_82 phases=3 Linecode=4c_.5 Length=0.13507 Units=m
New Line.LINE102_82 Bus1=102_80 Bus2=102_83 phases=3 Linecode=4c_.5 Length=7.0307 Units=m
New Line.LINE102_83 Bus1=102_81 Bus2=102_84 phases=3 Linecode=4c_.5 Length=0.071755 Units=m
New Line.LINE102_84 Bus1=102_82 Bus2=102_85 phases=3 Linecode=4c_.5 Length=22.7208 Units=m
New Line.LINE102_85 Bus1=102_83 Bus2=102_86 phases=3 Linecode=4c_.5 Length=6.6708 Units=m
New Line.LINE102_86 Bus1=102_84 Bus2=102_87 phases=3 Linecode=4c_.5 Length=0.10269 Units=m
New Line.LINE102_87 Bus1=102_85 Bus2=102_88 phases=3 Linecode=4c_.5 Length=6.4315 Units=m
New Line.LINE102_88 Bus1=102_86 Bus2=102_89 phases=3 Linecode=3c_.5 Length=3.1691 Units=m
New Line.LINE102_89 Bus1=102_86 Bus2=102_90 phases=3 Linecode=3c_300_ASN Length=0.46766 Units=m
New Line.LINE102_90 Bus1=102_87 Bus2=102_91 phases=3 Linecode=4c_.5 Length=0.10325 Units=m
New Line.LINE102_91 Bus1=102_88 Bus2=102_92 phases=3 Linecode=4c_.5 Length=0.91798 Units=m
New Line.LINE102_92 Bus1=102_89 Bus2=102_93 phases=3 Linecode=3c_.5 Length=8.6618 Units=m
New Line.LINE102_93 Bus1=102_90 Bus2=102_94 phases=3 Linecode=3c_300_ASN Length=0.29902 Units=m
New Line.LINE102_94 Bus1=102_91 Bus2=102_95 phases=3 Linecode=4c_.5 Length=0.08242 Units=m
New Line.LINE102_95 Bus1=102_92 Bus2=102_96 phases=3 Linecode=4c_.5 Length=0.097497 Units=m
New Line.LINE102_96 Bus1=102_93 Bus2=102_97 phases=3 Linecode=3c_.5 Length=2.6706 Units=m
New Line.LINE102_97 Bus1=102_94 Bus2=102_98 phases=3 Linecode=3c_300_ASN Length=0.13562 Units=m
New Line.LINE102_98 Bus1=102_95 Bus2=102_99 phases=3 Linecode=4c_.5 Length=0.082347 Units=m
New Line.LINE102_99 Bus1=102_96 Bus2=102_100 phases=3 Linecode=4c_.5 Length=0.067684 Units=m
New Line.LINE102_100 Bus1=102_97 Bus2=102_101 phases=3 Linecode=3c_.5 Length=12.4518 Units=m
New Line.LINE102_101 Bus1=102_98 Bus2=102_102 phases=3 Linecode=3c_300_ASN Length=0.13336 Units=m
New Line.LINE102_102 Bus1=102_99 Bus2=102_103 phases=3 Linecode=4c_.5 Length=0.083677 Units=m
New Line.LINE102_103 Bus1=102_100 Bus2=102_104 phases=3 Linecode=4c_.5 Length=0.061008 Units=m
New Line.LINE102_104 Bus1=102_101 Bus2=102_105 phases=3 Linecode=3c_.5 Length=0.23314 Units=m
New Line.LINE102_105 Bus1=102_102 Bus2=102_106 phases=3 Linecode=3c_300_ASN Length=0.38227 Units=m
New Line.LINE102_106 Bus1=102_103 Bus2=102_107 phases=3 Linecode=4c_.5 Length=0.082219 Units=m
New Line.LINE102_107 Bus1=102_104 Bus2=102_108 phases=3 Linecode=4c_.5 Length=0.055785 Units=m
New Line.LINE102_108 Bus1=102_105 Bus2=102_109 phases=3 Linecode=3c_.5 Length=0.15571 Units=m
New Line.LINE102_109 Bus1=102_106 Bus2=102_110 phases=3 Linecode=3c_300_ASN Length=0.23342 Units=m
New Line.LINE102_110 Bus1=102_107 Bus2=102_111 phases=3 Linecode=4c_.5 Length=0.082608 Units=m
New Line.LINE102_111 Bus1=102_108 Bus2=102_112 phases=3 Linecode=4c_.5 Length=0.067601 Units=m
New Line.LINE102_112 Bus1=102_109 Bus2=102_113 phases=3 Linecode=3c_.5 Length=0.15405 Units=m
New Line.LINE102_113 Bus1=102_110 Bus2=102_114 phases=3 Linecode=3c_300_ASN Length=2.5259 Units=m
New Line.LINE102_114 Bus1=102_111 Bus2=102_115 phases=3 Linecode=4c_.5 Length=0.082565 Units=m
New Line.LINE102_115 Bus1=102_112 Bus2=102_116 phases=3 Linecode=4c_.5 Length=0.053077 Units=m
New Line.LINE102_116 Bus1=102_113 Bus2=102_117 phases=3 Linecode=3c_.5 Length=0.114 Units=m
New Line.LINE102_117 Bus1=102_114 Bus2=102_118 phases=3 Linecode=3c_300_ASN Length=6.7005 Units=m
New Line.LINE102_118 Bus1=102_114 Bus2=102_119 phases=3 Linecode=3c_300_ASN Length=0.73147 Units=m
New Line.LINE102_119 Bus1=102_115 Bus2=102_120 phases=3 Linecode=4c_.5 Length=0.083187 Units=m
New Line.LINE102_120 Bus1=102_116 Bus2=102_121 phases=3 Linecode=4c_.5 Length=0.18921 Units=m
New Line.LINE102_121 Bus1=102_117 Bus2=102_122 phases=3 Linecode=3c_.5 Length=0.142 Units=m
New Line.LINE102_122 Bus1=102_118 Bus2=102_123 phases=3 Linecode=4c_.5_ASN Length=7.0137 Units=m
New Line.LINE102_123 Bus1=102_118 Bus2=102_124 phases=3 Linecode=3c_300_ASN Length=0.18995 Units=m
New Line.LINE102_124 Bus1=102_120 Bus2=102_125 phases=3 Linecode=4c_.5 Length=0.082619 Units=m
New Line.LINE102_125 Bus1=102_121 Bus2=102_126 phases=3 Linecode=4c_.5 Length=0.24909 Units=m
New Line.LINE102_126 Bus1=102_122 Bus2=102_127 phases=3 Linecode=3c_.5 Length=0.16103 Units=m
New Line.LINE102_127 Bus1=102_123 Bus2=102_128 phases=3 Linecode=4c_.5_ASN Length=9.1918 Units=m
New Line.LINE102_128 Bus1=102_124 Bus2=102_129 phases=3 Linecode=3c_300_ASN Length=0.245 Units=m
New Line.LINE102_129 Bus1=102_126 Bus2=102_130 phases=3 Linecode=4c_.5 Length=0.52192 Units=m
New Line.LINE102_130 Bus1=102_126 Bus2=102_131 phases=3 Linecode=3c_185_ASN Length=0.038833 Units=m
New Line.LINE102_131 Bus1=102_127 Bus2=102_132 phases=3 Linecode=3c_.5 Length=0.34126 Units=m
New Line.LINE102_132 Bus1=102_128 Bus2=102_133 phases=3 Linecode=4c_.5_ASN Length=1.7645 Units=m
New Line.LINE102_133 Bus1=102_129 Bus2=102_134 phases=3 Linecode=3c_300_ASN Length=0.24892 Units=m
New Line.LINE102_134 Bus1=102_130 Bus2=102_135 phases=3 Linecode=4c_.5 Length=0.69759 Units=m
New Line.LINE102_135 Bus1=102_131 Bus2=102_136 phases=3 Linecode=3c_185_ASN Length=0.074967 Units=m
New Line.LINE102_136 Bus1=102_132 Bus2=102_137 phases=3 Linecode=3c_.5 Length=1.8436 Units=m
New Line.LINE102_137 Bus1=102_133 Bus2=102_138 phases=3 Linecode=4c_.5_ASN Length=9.4999 Units=m
New Line.LINE102_138 Bus1=102_134 Bus2=102_139 phases=3 Linecode=3c_300_ASN Length=9.4774 Units=m
New Line.LINE102_139 Bus1=102_135 Bus2=102_140 phases=3 Linecode=4c_.5 Length=0.50032 Units=m
New Line.LINE102_140 Bus1=102_135 Bus2=102_141 phases=3 Linecode=3c_300_ASN Length=0.39232 Units=m
New Line.LINE102_141 Bus1=102_136 Bus2=102_142 phases=3 Linecode=3c_185_ASN Length=0.069261 Units=m
New Line.LINE102_142 Bus1=102_137 Bus2=102_143 phases=3 Linecode=3c_.5 Length=14.2403 Units=m
New Line.LINE102_143 Bus1=102_137 Bus2=102_144 phases=3 Linecode=3c_.5 Length=7.6563 Units=m
New Line.LINE102_144 Bus1=102_138 Bus2=102_145 phases=3 Linecode=4c_.5_ASN Length=6.1117 Units=m
New Line.LINE102_145 Bus1=102_139 Bus2=102_146 phases=3 Linecode=3c_300_ASN Length=3.4118 Units=m
New Line.LINE102_146 Bus1=102_140 Bus2=102_147 phases=3 Linecode=4c_.5 Length=0.50759 Units=m
New Line.LINE102_147 Bus1=102_141 Bus2=102_148 phases=3 Linecode=3c_300_ASN Length=0.24137 Units=m
New Line.LINE102_148 Bus1=102_142 Bus2=102_149 phases=3 Linecode=3c_185_ASN Length=0.096186 Units=m
New Line.LINE102_149 Bus1=102_144 Bus2=102_150 phases=3 Linecode=3c_.5 Length=6.1081 Units=m
New Line.LINE102_150 Bus1=102_145 Bus2=102_151 phases=3 Linecode=4c_.5_ASN Length=6.0593 Units=m
New Line.LINE102_151 Bus1=102_146 Bus2=102_152 phases=3 Linecode=3c_300_ASN Length=4.1222 Units=m
New Line.LINE102_152 Bus1=102_147 Bus2=102_153 phases=3 Linecode=4c_.5 Length=15.2027 Units=m
New Line.LINE102_153 Bus1=102_148 Bus2=102_154 phases=3 Linecode=3c_300_ASN Length=0.23211 Units=m
New Line.LINE102_154 Bus1=102_149 Bus2=102_155 phases=3 Linecode=3c_185_ASN Length=0.10032 Units=m
New Line.LINE102_155 Bus1=102_150 Bus2=102_156 phases=3 Linecode=3c_.5 Length=7.6939 Units=m
New Line.LINE102_156 Bus1=102_152 Bus2=102_157 phases=3 Linecode=3c_300_ASN Length=0.13413 Units=m
New Line.LINE102_157 Bus1=102_152 Bus2=102_158 phases=3 Linecode=4c_.12 Length=1.268 Units=m
New Line.LINE102_158 Bus1=102_153 Bus2=102_159 phases=3 Linecode=4c_.5 Length=6.8211 Units=m
New Line.LINE102_159 Bus1=102_154 Bus2=102_160 phases=3 Linecode=3c_300_ASN Length=0.32289 Units=m
New Line.LINE102_160 Bus1=102_155 Bus2=102_161 phases=3 Linecode=3c_185_ASN Length=0.087051 Units=m
New Line.LINE102_161 Bus1=102_156 Bus2=102_162 phases=3 Linecode=3c_.5 Length=0.21909 Units=m
New Line.LINE102_162 Bus1=102_157 Bus2=102_163 phases=3 Linecode=3c_300_ASN Length=0.23802 Units=m
New Line.LINE102_163 Bus1=102_158 Bus2=102_164 phases=3 Linecode=4c_.12 Length=0.56781 Units=m
New Line.LINE102_164 Bus1=102_159 Bus2=102_165 phases=3 Linecode=4c_.5 Length=0.18436 Units=m
New Line.LINE102_165 Bus1=102_160 Bus2=102_166 phases=3 Linecode=3c_300_ASN Length=0.39876 Units=m
New Line.LINE102_166 Bus1=102_161 Bus2=102_167 phases=3 Linecode=3c_185_ASN Length=0.082024 Units=m
New Line.LINE102_167 Bus1=102_162 Bus2=102_168 phases=3 Linecode=3c_.5 Length=0.243 Units=m
New Line.LINE102_168 Bus1=102_163 Bus2=102_169 phases=3 Linecode=3c_300_ASN Length=0.56657 Units=m
New Line.LINE102_169 Bus1=102_164 Bus2=102_170 phases=3 Linecode=4c_.12 Length=0.33765 Units=m
New Line.LINE102_170 Bus1=102_165 Bus2=102_171 phases=3 Linecode=4c_.5 Length=0.23386 Units=m
New Line.LINE102_171 Bus1=102_166 Bus2=102_172 phases=3 Linecode=3c_300_ASN Length=0.31475 Units=m
New Line.LINE102_172 Bus1=102_167 Bus2=102_173 phases=3 Linecode=3c_185_ASN Length=0.094191 Units=m
New Line.LINE102_173 Bus1=102_168 Bus2=102_174 phases=3 Linecode=3c_.5 Length=0.26221 Units=m
New Line.LINE102_174 Bus1=102_169 Bus2=102_175 phases=3 Linecode=3c_300_ASN Length=0.43587 Units=m
New Line.LINE102_175 Bus1=102_170 Bus2=102_176 phases=3 Linecode=4c_.12 Length=4.5086 Units=m
New Line.LINE102_176 Bus1=102_171 Bus2=102_177 phases=3 Linecode=4c_.5 Length=0.8062 Units=m
New Line.LINE102_177 Bus1=102_172 Bus2=102_178 phases=3 Linecode=3c_300_ASN Length=0.061326 Units=m
New Line.LINE102_178 Bus1=102_173 Bus2=102_179 phases=3 Linecode=3c_185_ASN Length=0.083295 Units=m
New Line.LINE102_179 Bus1=102_174 Bus2=102_180 phases=3 Linecode=3c_.5 Length=0.36269 Units=m
New Line.LINE102_180 Bus1=102_175 Bus2=102_181 phases=3 Linecode=3c_300_ASN Length=0.28079 Units=m
New Line.LINE102_181 Bus1=102_176 Bus2=102_182 phases=3 Linecode=4c_.12 Length=3.7601 Units=m
New Line.LINE102_182 Bus1=102_176 Bus2=102_183 phases=3 Linecode=2c_.007 Length=0.23744 Units=m
New Line.LINE102_183 Bus1=102_177 Bus2=102_184 phases=3 Linecode=4c_.5 Length=1.2795 Units=m
New Line.LINE102_184 Bus1=102_178 Bus2=102_185 phases=3 Linecode=3c_300_ASN Length=0.037122 Units=m
New Line.LINE102_185 Bus1=102_179 Bus2=102_186 phases=3 Linecode=3c_185_ASN Length=0.1058 Units=m
New Line.LINE102_186 Bus1=102_180 Bus2=102_187 phases=3 Linecode=3c_.5 Length=0.39238 Units=m
New Line.LINE102_187 Bus1=102_181 Bus2=102_188 phases=3 Linecode=3c_300_ASN Length=0.21926 Units=m
New Line.LINE102_188 Bus1=102_182 Bus2=102_189 phases=3 Linecode=4c_.12 Length=0.96132 Units=m
New Line.LINE102_189 Bus1=102_182 Bus2=102_190 phases=3 Linecode=4c_.12 Length=0.17127 Units=m
New Line.LINE102_190 Bus1=102_183 Bus2=102_191 phases=3 Linecode=2c_.007 Length=0.1078 Units=m
New Line.LINE102_191 Bus1=102_184 Bus2=102_192 phases=3 Linecode=4c_.5 Length=1.5598 Units=m
New Line.LINE102_192 Bus1=102_184 Bus2=102_193 phases=3 Linecode=4c_300_SAC Length=0.16003 Units=m
New Line.LINE102_193 Bus1=102_185 Bus2=102_194 phases=3 Linecode=3c_300_ASN Length=0.042485 Units=m
New Line.LINE102_194 Bus1=102_186 Bus2=102_195 phases=3 Linecode=3c_185_ASN Length=0.077466 Units=m
New Line.LINE102_195 Bus1=102_187 Bus2=102_196 phases=3 Linecode=3c_.5 Length=0.36673 Units=m
New Line.LINE102_196 Bus1=102_188 Bus2=102_197 phases=3 Linecode=3c_300_ASN Length=0.92335 Units=m
New Line.LINE102_197 Bus1=102_190 Bus2=102_198 phases=3 Linecode=4c_.12 Length=0.097417 Units=m
New Line.LINE102_198 Bus1=102_191 Bus2=102_199 phases=3 Linecode=2c_.007 Length=0.1986 Units=m
New Line.LINE102_199 Bus1=102_192 Bus2=102_200 phases=3 Linecode=3c_300_SAC_XC Length=0.47128 Units=m
New Line.LINE102_200 Bus1=102_192 Bus2=102_201 phases=3 Linecode=4c_.5 Length=1.6012 Units=m
New Line.LINE102_201 Bus1=102_193 Bus2=102_202 phases=3 Linecode=4c_300_SAC Length=0.14612 Units=m
New Line.LINE102_202 Bus1=102_194 Bus2=102_203 phases=3 Linecode=3c_300_ASN Length=0.039 Units=m
New Line.LINE102_203 Bus1=102_195 Bus2=102_204 phases=3 Linecode=3c_185_ASN Length=0.064559 Units=m
New Line.LINE102_204 Bus1=102_196 Bus2=102_205 phases=3 Linecode=3c_.5 Length=0.40384 Units=m
New Line.LINE102_205 Bus1=102_197 Bus2=102_206 phases=3 Linecode=3c_300_ASN Length=5.603 Units=m
New Line.LINE102_206 Bus1=102_198 Bus2=102_207 phases=3 Linecode=4c_.12 Length=0.092439 Units=m
New Line.LINE102_207 Bus1=102_199 Bus2=102_208 phases=3 Linecode=2c_.007 Length=0.40825 Units=m
New Line.LINE102_208 Bus1=102_200 Bus2=102_209 phases=3 Linecode=3c_300_SAC_XC Length=0.19161 Units=m
New Line.LINE102_209 Bus1=102_201 Bus2=102_210 phases=3 Linecode=4_XC Length=0.48785 Units=m
New Line.LINE102_210 Bus1=102_201 Bus2=102_211 phases=3 Linecode=4c_.5 Length=4.497 Units=m
New Line.LINE102_211 Bus1=102_202 Bus2=102_212 phases=3 Linecode=4c_300_SAC Length=0.50903 Units=m
New Line.LINE102_212 Bus1=102_203 Bus2=102_213 phases=3 Linecode=3c_300_ASN Length=0.043681 Units=m
New Line.LINE102_213 Bus1=102_204 Bus2=102_214 phases=3 Linecode=3c_185_ASN Length=0.066852 Units=m
New Line.LINE102_214 Bus1=102_205 Bus2=102_215 phases=3 Linecode=3c_.5 Length=0.4162 Units=m
New Line.LINE102_215 Bus1=102_206 Bus2=102_216 phases=3 Linecode=3c_300_ASN Length=0.17918 Units=m
New Line.LINE102_216 Bus1=102_207 Bus2=102_217 phases=3 Linecode=4c_.12 Length=0.082281 Units=m
New Line.LINE102_217 Bus1=102_208 Bus2=102_218 phases=3 Linecode=2c_.007 Length=1.1324 Units=m
New Line.LINE102_218 Bus1=102_209 Bus2=102_219 phases=3 Linecode=3c_300_SAC_XC Length=0.25613 Units=m
New Line.LINE102_219 Bus1=102_210 Bus2=102_220 phases=3 Linecode=4_XC Length=0.2382 Units=m
New Line.LINE102_220 Bus1=102_211 Bus2=102_221 phases=3 Linecode=4c_.5 Length=0.497 Units=m
New Line.LINE102_221 Bus1=102_213 Bus2=102_222 phases=3 Linecode=3c_300_ASN Length=0.033061 Units=m
New Line.LINE102_222 Bus1=102_214 Bus2=102_223 phases=3 Linecode=3c_185_ASN Length=0.091301 Units=m
New Line.LINE102_223 Bus1=102_215 Bus2=102_224 phases=3 Linecode=3c_.5 Length=0.26522 Units=m
New Line.LINE102_224 Bus1=102_216 Bus2=102_225 phases=3 Linecode=3c_300_ASN Length=0.18169 Units=m
New Line.LINE102_225 Bus1=102_217 Bus2=102_226 phases=3 Linecode=4c_.12 Length=0.11754 Units=m
New Line.LINE102_226 Bus1=102_218 Bus2=102_227 phases=3 Linecode=2c_.007 Length=0.22155 Units=m
New Line.LINE102_227 Bus1=102_219 Bus2=102_228 phases=3 Linecode=3c_300_SAC_XC Length=0.327 Units=m
New Line.LINE102_228 Bus1=102_220 Bus2=102_229 phases=3 Linecode=4_XC Length=0.23821 Units=m
New Line.LINE102_229 Bus1=102_221 Bus2=102_230 phases=3 Linecode=4c_.5 Length=4.377 Units=m
New Line.LINE102_230 Bus1=102_222 Bus2=102_231 phases=3 Linecode=3c_300_ASN Length=0.032016 Units=m
New Line.LINE102_231 Bus1=102_223 Bus2=102_232 phases=3 Linecode=3c_185_ASN Length=0.080801 Units=m
New Line.LINE102_232 Bus1=102_224 Bus2=102_233 phases=3 Linecode=3c_.5 Length=0.13642 Units=m
New Line.LINE102_233 Bus1=102_225 Bus2=102_234 phases=3 Linecode=3c_300_ASN Length=0.35928 Units=m
New Line.LINE102_234 Bus1=102_226 Bus2=102_235 phases=3 Linecode=4c_.12 Length=0.11188 Units=m
New Line.LINE102_235 Bus1=102_227 Bus2=102_236 phases=3 Linecode=2c_.007 Length=0.34755 Units=m
New Line.LINE102_236 Bus1=102_228 Bus2=102_237 phases=3 Linecode=3c_300_SAC_XC Length=0.27906 Units=m
New Line.LINE102_237 Bus1=102_229 Bus2=102_238 phases=3 Linecode=4_XC Length=0.23844 Units=m
New Line.LINE102_238 Bus1=102_230 Bus2=102_239 phases=3 Linecode=4c_.5 Length=3.6333 Units=m
New Line.LINE102_239 Bus1=102_231 Bus2=102_240 phases=3 Linecode=3c_300_ASN Length=0.04993 Units=m
New Line.LINE102_240 Bus1=102_232 Bus2=102_241 phases=3 Linecode=3c_185_ASN Length=0.08288 Units=m
New Line.LINE102_241 Bus1=102_233 Bus2=102_242 phases=3 Linecode=3c_.5 Length=0.28181 Units=m
New Line.LINE102_242 Bus1=102_234 Bus2=102_243 phases=3 Linecode=3c_300_ASN Length=0.33681 Units=m
New Line.LINE102_243 Bus1=102_235 Bus2=102_244 phases=3 Linecode=4c_.12 Length=0.32948 Units=m
New Line.LINE102_244 Bus1=102_236 Bus2=102_245 phases=3 Linecode=2c_.007 Length=0.17729 Units=m
New Line.LINE102_245 Bus1=102_237 Bus2=102_246 phases=3 Linecode=3c_300_SAC_XC Length=0.31691 Units=m
New Line.LINE102_246 Bus1=102_238 Bus2=102_247 phases=3 Linecode=4_XC Length=0.23814 Units=m
New Line.LINE102_247 Bus1=102_239 Bus2=102_248 phases=3 Linecode=4_XC Length=0.64663 Units=m
New Line.LINE102_248 Bus1=102_239 Bus2=102_249 phases=3 Linecode=4c_.5 Length=11.3444 Units=m
New Line.LINE102_249 Bus1=102_240 Bus2=102_250 phases=3 Linecode=3c_300_ASN Length=0.060108 Units=m
New Line.LINE102_250 Bus1=102_241 Bus2=102_251 phases=3 Linecode=3c_185_ASN Length=0.080623 Units=m
New Line.LINE102_251 Bus1=102_242 Bus2=102_252 phases=3 Linecode=3c_.5 Length=0.3861 Units=m
New Line.LINE102_252 Bus1=102_243 Bus2=102_253 phases=3 Linecode=3c_300_ASN Length=0.24198 Units=m
New Line.LINE102_253 Bus1=102_244 Bus2=102_254 phases=3 Linecode=4c_.12 Length=2.1618 Units=m
New Line.LINE102_254 Bus1=102_245 Bus2=102_255 phases=3 Linecode=2c_.007 Length=0.28079 Units=m
New Line.LINE102_255 Bus1=102_246 Bus2=102_256 phases=3 Linecode=3c_300_SAC_XC Length=0.23201 Units=m
New Line.LINE102_256 Bus1=102_248 Bus2=102_257 phases=3 Linecode=4_XC Length=0.1445 Units=m
New Line.LINE102_257 Bus1=102_249 Bus2=102_258 phases=3 Linecode=3c_95_SAC_XC Length=2.7006 Units=m
New Line.LINE102_258 Bus1=102_250 Bus2=102_259 phases=3 Linecode=3c_300_ASN Length=0.063303 Units=m
New Line.LINE102_259 Bus1=102_251 Bus2=102_260 phases=3 Linecode=3c_185_ASN Length=0.064444 Units=m
New Line.LINE102_260 Bus1=102_252 Bus2=102_261 phases=3 Linecode=3c_.5 Length=0.36373 Units=m
New Line.LINE102_261 Bus1=102_253 Bus2=102_262 phases=3 Linecode=3c_300_ASN Length=0.32146 Units=m
New Line.LINE102_262 Bus1=102_255 Bus2=102_263 phases=3 Linecode=2c_.007 Length=0.84475 Units=m
New Line.LINE102_263 Bus1=102_256 Bus2=102_264 phases=3 Linecode=3c_300_SAC_XC Length=1.0982 Units=m
New Line.LINE102_264 Bus1=102_257 Bus2=102_265 phases=3 Linecode=4_XC Length=0.14509 Units=m
New Line.LINE102_265 Bus1=102_258 Bus2=102_266 phases=3 Linecode=3c_95_SAC_XC Length=0.13065 Units=m
New Line.LINE102_266 Bus1=102_258 Bus2=102_267 phases=3 Linecode=3c_95_SAC_XC Length=4.3091 Units=m
New Line.LINE102_267 Bus1=102_259 Bus2=102_268 phases=3 Linecode=3c_300_ASN Length=0.045763 Units=m
New Line.LINE102_268 Bus1=102_260 Bus2=102_269 phases=3 Linecode=3c_185_ASN Length=0.080918 Units=m
New Line.LINE102_269 Bus1=102_261 Bus2=102_270 phases=3 Linecode=3c_.5 Length=0.04665 Units=m
New Line.LINE102_270 Bus1=102_262 Bus2=102_271 phases=3 Linecode=4c_.5 Length=6.2043 Units=m
New Line.LINE102_271 Bus1=102_262 Bus2=102_272 phases=3 Linecode=4c_.12 Length=0.36019 Units=m
New Line.LINE102_272 Bus1=102_264 Bus2=102_273 phases=3 Linecode=3c_300_SAC_XC Length=0.47161 Units=m
New Line.LINE102_273 Bus1=102_265 Bus2=102_274 phases=3 Linecode=4_XC Length=0.14494 Units=m
New Line.LINE102_274 Bus1=102_266 Bus2=102_275 phases=3 Linecode=3c_95_SAC_XC Length=0.1178 Units=m
New Line.LINE102_275 Bus1=102_267 Bus2=102_276 phases=3 Linecode=2c_.007 Length=0.21174 Units=m
New Line.LINE102_276 Bus1=102_267 Bus2=102_277 phases=3 Linecode=3c_95_SAC_XC Length=0.20563 Units=m
New Line.LINE102_277 Bus1=102_269 Bus2=102_278 phases=3 Linecode=3c_185_ASN Length=0.060309 Units=m
New Line.LINE102_278 Bus1=102_270 Bus2=102_279 phases=3 Linecode=3c_.5 Length=0.34494 Units=m
New Line.LINE102_279 Bus1=102_271 Bus2=102_280 phases=3 Linecode=4c_.5 Length=6.0593 Units=m
New Line.LINE102_280 Bus1=102_272 Bus2=102_281 phases=3 Linecode=4c_.12 Length=8.5268 Units=m
New Line.LINE102_281 Bus1=102_273 Bus2=102_282 phases=3 Linecode=3c_300_SAC_XC Length=0.50545 Units=m
New Line.LINE102_282 Bus1=102_274 Bus2=102_283 phases=3 Linecode=4_XC Length=0.14452 Units=m
New Line.LINE102_283 Bus1=102_275 Bus2=102_284 phases=3 Linecode=3c_95_SAC_XC Length=0.15788 Units=m
New Line.LINE102_284 Bus1=102_276 Bus2=102_285 phases=3 Linecode=2c_.007 Length=0.16961 Units=m
New Line.LINE102_285 Bus1=102_277 Bus2=102_286 phases=3 Linecode=4c_.5_SAC Length=1.6423 Units=m
New Line.LINE102_286 Bus1=102_279 Bus2=102_287 phases=3 Linecode=3c_.5 Length=4.4289 Units=m
New Line.LINE102_287 Bus1=102_281 Bus2=102_288 phases=3 Linecode=4c_.12 Length=0.46802 Units=m
New Line.LINE102_288 Bus1=102_282 Bus2=102_289 phases=3 Linecode=3c_300_SAC_XC Length=0.5864 Units=m
New Line.LINE102_289 Bus1=102_283 Bus2=102_290 phases=3 Linecode=4_XC Length=0.14538 Units=m
New Line.LINE102_290 Bus1=102_285 Bus2=102_291 phases=3 Linecode=2c_.007 Length=0.19454 Units=m
New Line.LINE102_291 Bus1=102_286 Bus2=102_292 phases=3 Linecode=4c_.5_SAC Length=0.23479 Units=m
New Line.LINE102_292 Bus1=102_287 Bus2=102_293 phases=3 Linecode=3c_.5 Length=8.0857 Units=m
New Line.LINE102_293 Bus1=102_288 Bus2=102_294 phases=3 Linecode=4c_.12 Length=0.15728 Units=m
New Line.LINE102_294 Bus1=102_289 Bus2=102_295 phases=3 Linecode=3c_300_SAC_XC Length=0.3281 Units=m
New Line.LINE102_295 Bus1=102_290 Bus2=102_296 phases=3 Linecode=4_XC Length=0.14409 Units=m
New Line.LINE102_296 Bus1=102_291 Bus2=102_297 phases=3 Linecode=2c_.007 Length=0.24321 Units=m
New Line.LINE102_297 Bus1=102_292 Bus2=102_298 phases=3 Linecode=4c_.5_SAC Length=0.11911 Units=m
New Line.LINE102_298 Bus1=102_293 Bus2=102_299 phases=3 Linecode=3c_.5 Length=11.2708 Units=m
New Line.LINE102_299 Bus1=102_294 Bus2=102_300 phases=3 Linecode=4c_.12 Length=0.16408 Units=m
New Line.LINE102_300 Bus1=102_295 Bus2=102_301 phases=3 Linecode=3c_300_SAC_XC Length=0.23255 Units=m
New Line.LINE102_301 Bus1=102_296 Bus2=102_302 phases=3 Linecode=4_XC Length=0.14513 Units=m
New Line.LINE102_302 Bus1=102_298 Bus2=102_303 phases=3 Linecode=4c_.5_SAC Length=0.16269 Units=m
New Line.LINE102_303 Bus1=102_299 Bus2=102_304 phases=3 Linecode=4c_.5_SAC Length=0.35876 Units=m
New Line.LINE102_304 Bus1=102_300 Bus2=102_305 phases=3 Linecode=4c_.12 Length=0.44681 Units=m
New Line.LINE102_305 Bus1=102_301 Bus2=102_306 phases=3 Linecode=3c_300_SAC_XC Length=7.6585 Units=m
New Line.LINE102_306 Bus1=102_303 Bus2=102_307 phases=3 Linecode=4c_.5_SAC Length=0.15473 Units=m
New Line.LINE102_307 Bus1=102_304 Bus2=102_308 phases=3 Linecode=4c_.5_SAC Length=0.1764 Units=m
New Line.LINE102_308 Bus1=102_305 Bus2=102_309 phases=3 Linecode=4c_.12 Length=1.2736 Units=m
New Line.LINE102_309 Bus1=102_306 Bus2=102_310 phases=3 Linecode=3c_300_SAC_XC Length=0.15305 Units=m
New Line.LINE102_310 Bus1=102_307 Bus2=102_311 phases=3 Linecode=4c_.5_SAC Length=0.21759 Units=m
New Line.LINE102_311 Bus1=102_308 Bus2=102_312 phases=3 Linecode=4c_.5_SAC Length=0.12102 Units=m
New Line.LINE102_312 Bus1=102_309 Bus2=102_313 phases=3 Linecode=4c_.12 Length=0.25738 Units=m
New Line.LINE102_313 Bus1=102_310 Bus2=102_314 phases=3 Linecode=3c_300_SAC_XC Length=0.27093 Units=m
New Line.LINE102_314 Bus1=102_310 Bus2=102_315 phases=3 Linecode=3c_300_SAC_XC Length=1.4126 Units=m
New Line.LINE102_315 Bus1=102_311 Bus2=102_316 phases=3 Linecode=4c_.5_SAC Length=5.5452 Units=m
New Line.LINE102_316 Bus1=102_312 Bus2=102_317 phases=3 Linecode=4c_.5_SAC Length=0.2042 Units=m
New Line.LINE102_317 Bus1=102_313 Bus2=102_318 phases=3 Linecode=4c_.12 Length=0.29633 Units=m
New Line.LINE102_318 Bus1=102_314 Bus2=102_319 phases=3 Linecode=3c_300_SAC_XC Length=0.19646 Units=m
New Line.LINE102_319 Bus1=102_315 Bus2=102_320 phases=3 Linecode=3c_300_SAC_XC Length=0.29348 Units=m
New Line.LINE102_320 Bus1=102_316 Bus2=102_321 phases=3 Linecode=4c_.5_SAC Length=0.20762 Units=m
New Line.LINE102_321 Bus1=102_317 Bus2=102_322 phases=3 Linecode=4c_.5_SAC Length=0.38144 Units=m
New Line.LINE102_322 Bus1=102_318 Bus2=102_323 phases=3 Linecode=4c_.12 Length=0.20398 Units=m
New Line.LINE102_323 Bus1=102_319 Bus2=102_324 phases=3 Linecode=3c_300_SAC_XC Length=0.19513 Units=m
New Line.LINE102_324 Bus1=102_320 Bus2=102_325 phases=3 Linecode=3c_300_SAC_XC Length=0.72989 Units=m
New Line.LINE102_325 Bus1=102_321 Bus2=102_326 phases=3 Linecode=4c_.5_SAC Length=0.106 Units=m
New Line.LINE102_326 Bus1=102_322 Bus2=102_327 phases=3 Linecode=4c_.5_SAC Length=0.41933 Units=m
New Line.LINE102_327 Bus1=102_323 Bus2=102_328 phases=3 Linecode=4c_.12 Length=0.19955 Units=m
New Line.LINE102_328 Bus1=102_324 Bus2=102_329 phases=3 Linecode=3c_300_SAC_XC Length=0.19526 Units=m
New Line.LINE102_329 Bus1=102_325 Bus2=102_330 phases=3 Linecode=3c_300_SAC_XC Length=0.37334 Units=m
New Line.LINE102_330 Bus1=102_326 Bus2=102_331 phases=3 Linecode=4c_.5_SAC Length=0.30083 Units=m
New Line.LINE102_331 Bus1=102_327 Bus2=102_332 phases=3 Linecode=4c_.5_SAC Length=0.71097 Units=m
New Line.LINE102_332 Bus1=102_328 Bus2=102_333 phases=3 Linecode=4c_.12 Length=0.19773 Units=m
New Line.LINE102_333 Bus1=102_329 Bus2=102_334 phases=3 Linecode=3c_300_SAC_XC Length=0.19647 Units=m
New Line.LINE102_334 Bus1=102_330 Bus2=102_335 phases=3 Linecode=3c_300_SAC_XC Length=2.7857 Units=m
New Line.LINE102_335 Bus1=102_331 Bus2=102_336 phases=3 Linecode=4c_.5_SAC Length=0.40523 Units=m
New Line.LINE102_336 Bus1=102_332 Bus2=102_337 phases=3 Linecode=4c_.5_SAC Length=2.4059 Units=m
New Line.LINE102_337 Bus1=102_333 Bus2=102_338 phases=3 Linecode=4c_.12 Length=0.14621 Units=m
New Line.LINE102_338 Bus1=102_334 Bus2=102_339 phases=3 Linecode=3c_300_SAC_XC Length=0.19506 Units=m
New Line.LINE102_339 Bus1=102_336 Bus2=102_340 phases=3 Linecode=4c_.5_SAC Length=0.18924 Units=m
New Line.LINE102_340 Bus1=102_337 Bus2=102_341 phases=3 Linecode=4c_.5_SAC Length=3.7319 Units=m
New Line.LINE102_341 Bus1=102_338 Bus2=102_342 phases=3 Linecode=4c_.12 Length=0.48918 Units=m
New Line.LINE102_342 Bus1=102_339 Bus2=102_343 phases=3 Linecode=3c_300_SAC_XC Length=0.19524 Units=m
New Line.LINE102_343 Bus1=102_340 Bus2=102_344 phases=3 Linecode=4c_.5_SAC Length=0.10312 Units=m
New Line.LINE102_344 Bus1=102_341 Bus2=102_345 phases=3 Linecode=4c_.5_SAC Length=2.8156 Units=m
New Line.LINE102_345 Bus1=102_342 Bus2=102_346 phases=3 Linecode=4c_.12 Length=0.6965 Units=m
New Line.LINE102_346 Bus1=102_343 Bus2=102_347 phases=3 Linecode=3c_300_SAC_XC Length=0.19589 Units=m
New Line.LINE102_347 Bus1=102_344 Bus2=102_348 phases=3 Linecode=4c_.5_SAC Length=0.099725 Units=m
New Line.LINE102_348 Bus1=102_345 Bus2=102_349 phases=3 Linecode=4c_.5_SAC Length=0.38618 Units=m
New Line.LINE102_349 Bus1=102_345 Bus2=102_350 phases=3 Linecode=4c_.5_SAC Length=1.8572 Units=m
New Line.LINE102_350 Bus1=102_346 Bus2=102_351 phases=3 Linecode=4c_.12 Length=0.54276 Units=m
New Line.LINE102_351 Bus1=102_347 Bus2=102_352 phases=3 Linecode=3c_300_SAC_XC Length=0.19536 Units=m
New Line.LINE102_352 Bus1=102_348 Bus2=102_353 phases=3 Linecode=4c_.5_SAC Length=3.8669 Units=m
New Line.LINE102_353 Bus1=102_349 Bus2=102_354 phases=3 Linecode=4c_.5_SAC Length=0.11942 Units=m
New Line.LINE102_354 Bus1=102_350 Bus2=102_355 phases=3 Linecode=4c_.5_SAC Length=0.15122 Units=m
New Line.LINE102_355 Bus1=102_351 Bus2=102_356 phases=3 Linecode=4c_.12 Length=0.62154 Units=m
New Line.LINE102_356 Bus1=102_352 Bus2=102_357 phases=3 Linecode=3c_300_SAC_XC Length=0.1958 Units=m
New Line.LINE102_357 Bus1=102_353 Bus2=102_358 phases=3 Linecode=4c_.5_SAC Length=0.083259 Units=m
New Line.LINE102_358 Bus1=102_354 Bus2=102_359 phases=3 Linecode=4c_.5_SAC Length=0.044598 Units=m
New Line.LINE102_359 Bus1=102_355 Bus2=102_360 phases=3 Linecode=4c_300_SAC Length=1.0369 Units=m
New Line.LINE102_360 Bus1=102_356 Bus2=102_361 phases=3 Linecode=4c_.12 Length=0.71987 Units=m
New Line.LINE102_361 Bus1=102_357 Bus2=102_362 phases=3 Linecode=3c_300_SAC_XC Length=0.19504 Units=m
New Line.LINE102_362 Bus1=102_358 Bus2=102_363 phases=3 Linecode=4c_.5_SAC Length=0.16668 Units=m
New Line.LINE102_363 Bus1=102_359 Bus2=102_364 phases=3 Linecode=4c_.5_SAC Length=0.072622 Units=m
New Line.LINE102_364 Bus1=102_360 Bus2=102_365 phases=3 Linecode=4c_300_SAC Length=2.0498 Units=m
New Line.LINE102_365 Bus1=102_361 Bus2=102_366 phases=3 Linecode=4c_.12 Length=14.7768 Units=m
New Line.LINE102_366 Bus1=102_362 Bus2=102_367 phases=3 Linecode=3c_300_SAC_XC Length=0.19556 Units=m
New Line.LINE102_367 Bus1=102_363 Bus2=102_368 phases=3 Linecode=4c_.5_SAC Length=0.13647 Units=m
New Line.LINE102_368 Bus1=102_364 Bus2=102_369 phases=3 Linecode=4c_.5_SAC Length=0.142 Units=m
New Line.LINE102_369 Bus1=102_365 Bus2=102_370 phases=3 Linecode=4c_300_SAC Length=3.5785 Units=m
New Line.LINE102_370 Bus1=102_367 Bus2=102_371 phases=3 Linecode=3c_300_SAC_XC Length=3.5596 Units=m
New Line.LINE102_371 Bus1=102_368 Bus2=102_372 phases=3 Linecode=4c_.5_SAC Length=0.13201 Units=m
New Line.LINE102_372 Bus1=102_369 Bus2=102_373 phases=3 Linecode=4c_.5_SAC Length=0.11014 Units=m
New Line.LINE102_373 Bus1=102_370 Bus2=102_374 phases=3 Linecode=4c_300_SAC Length=0.87387 Units=m
New Line.LINE102_374 Bus1=102_370 Bus2=102_375 phases=3 Linecode=4c_300_SAC Length=2.34 Units=m
New Line.LINE102_375 Bus1=102_371 Bus2=102_376 phases=3 Linecode=3c_300_SAC_XC Length=0.91971 Units=m
New Line.LINE102_376 Bus1=102_372 Bus2=102_377 phases=3 Linecode=4c_.5_SAC Length=0.28989 Units=m
New Line.LINE102_377 Bus1=102_373 Bus2=102_378 phases=3 Linecode=4c_.5_SAC Length=0.095524 Units=m
New Line.LINE102_378 Bus1=102_374 Bus2=102_379 phases=3 Linecode=4c_300_SAC Length=0.49098 Units=m
New Line.LINE102_379 Bus1=102_375 Bus2=102_380 phases=3 Linecode=4c_300_SAC Length=1.3938 Units=m
New Line.LINE102_380 Bus1=102_376 Bus2=102_381 phases=3 Linecode=3c_300_SAC_XC Length=0.27818 Units=m
New Line.LINE102_381 Bus1=102_377 Bus2=102_382 phases=3 Linecode=4c_.5_SAC Length=0.18604 Units=m
New Line.LINE102_382 Bus1=102_378 Bus2=102_383 phases=3 Linecode=4c_.5_SAC Length=0.12839 Units=m
New Line.LINE102_383 Bus1=102_379 Bus2=102_384 phases=3 Linecode=4c_300_SAC Length=0.23621 Units=m
New Line.LINE102_384 Bus1=102_380 Bus2=102_385 phases=3 Linecode=4c_300_SAC Length=0.26786 Units=m
New Line.LINE102_385 Bus1=102_381 Bus2=102_386 phases=3 Linecode=25_SAC_XC Length=0.47293 Units=m
New Line.LINE102_386 Bus1=102_382 Bus2=102_387 phases=3 Linecode=4c_.5_SAC Length=0.12602 Units=m
New Line.LINE102_387 Bus1=102_383 Bus2=102_388 phases=3 Linecode=4c_.5_SAC Length=0.08956 Units=m
New Line.LINE102_388 Bus1=102_385 Bus2=102_389 phases=3 Linecode=4c_300_SAC Length=0.231 Units=m
New Line.LINE102_389 Bus1=102_386 Bus2=102_390 phases=3 Linecode=25_SAC_XC Length=0.76494 Units=m
New Line.LINE102_390 Bus1=102_387 Bus2=102_391 phases=3 Linecode=4c_.5_SAC Length=0.12104 Units=m
New Line.LINE102_391 Bus1=102_388 Bus2=102_392 phases=3 Linecode=4c_.5_SAC Length=0.29955 Units=m
New Line.LINE102_392 Bus1=102_389 Bus2=102_393 phases=3 Linecode=4c_300_SAC Length=0.244 Units=m
New Line.LINE102_393 Bus1=102_390 Bus2=102_394 phases=3 Linecode=25_SAC_XC Length=0.7653 Units=m
New Line.LINE102_394 Bus1=102_391 Bus2=102_395 phases=3 Linecode=4c_.5_SAC Length=0.14355 Units=m
New Line.LINE102_395 Bus1=102_392 Bus2=102_396 phases=3 Linecode=4c_.5_SAC Length=0.21792 Units=m
New Line.LINE102_396 Bus1=102_393 Bus2=102_397 phases=3 Linecode=4c_300_SAC Length=0.30748 Units=m
New Line.LINE102_397 Bus1=102_394 Bus2=102_398 phases=3 Linecode=25_SAC_XC Length=0.76525 Units=m
New Line.LINE102_398 Bus1=102_395 Bus2=102_399 phases=3 Linecode=4c_.5_SAC Length=1.1583 Units=m
New Line.LINE102_399 Bus1=102_397 Bus2=102_400 phases=3 Linecode=4c_300_SAC Length=0.32062 Units=m
New Line.LINE102_400 Bus1=102_398 Bus2=102_401 phases=3 Linecode=25_SAC_XC Length=0.76522 Units=m
New Line.LINE102_401 Bus1=102_399 Bus2=102_402 phases=3 Linecode=4c_.5_SAC Length=0.046872 Units=m
New Line.LINE102_402 Bus1=102_400 Bus2=102_403 phases=3 Linecode=4c_300_SAC Length=0.38863 Units=m
New Line.LINE102_403 Bus1=102_401 Bus2=102_404 phases=3 Linecode=25_SAC_XC Length=0.76463 Units=m
New Line.LINE102_404 Bus1=102_402 Bus2=102_405 phases=3 Linecode=4c_.5_SAC Length=0.067882 Units=m
New Line.LINE102_405 Bus1=102_403 Bus2=102_406 phases=3 Linecode=4c_300_SAC Length=1.3672 Units=m
New Line.LINE102_406 Bus1=102_404 Bus2=102_407 phases=3 Linecode=25_SAC_XC Length=0.76542 Units=m
New Line.LINE102_407 Bus1=102_405 Bus2=102_408 phases=3 Linecode=4c_.5_SAC Length=0.082152 Units=m
New Line.LINE102_408 Bus1=102_406 Bus2=102_409 phases=3 Linecode=4c_300_SAC Length=1.076 Units=m
New Line.LINE102_409 Bus1=102_407 Bus2=102_410 phases=3 Linecode=25_SAC_XC Length=0.765 Units=m
New Line.LINE102_410 Bus1=102_408 Bus2=102_411 phases=3 Linecode=4c_.5_SAC Length=0.12336 Units=m
New Line.LINE102_411 Bus1=102_409 Bus2=102_412 phases=3 Linecode=4c_300_SAC Length=2.7901 Units=m
New Line.LINE102_412 Bus1=102_410 Bus2=102_413 phases=3 Linecode=25_SAC_XC Length=6.3877 Units=m
New Line.LINE102_413 Bus1=102_411 Bus2=102_414 phases=3 Linecode=4c_.5_SAC Length=0.062513 Units=m
New Line.LINE102_414 Bus1=102_412 Bus2=102_415 phases=3 Linecode=4c_300_SAC Length=0.15081 Units=m
New Line.LINE102_415 Bus1=102_413 Bus2=102_416 phases=3 Linecode=25_SAC_XC Length=19 Units=m
New Line.LINE102_416 Bus1=102_414 Bus2=102_417 phases=3 Linecode=4c_.5_SAC Length=0.062937 Units=m
New Line.LINE102_417 Bus1=102_415 Bus2=102_418 phases=3 Linecode=4c_300_SAC Length=0.16269 Units=m
New Line.LINE102_418 Bus1=102_416 Bus2=102_419 phases=3 Linecode=25_SAC_XC Length=10.6834 Units=m
New Line.LINE102_419 Bus1=102_417 Bus2=102_420 phases=3 Linecode=4c_.5_SAC Length=0.24955 Units=m
New Line.LINE102_420 Bus1=102_418 Bus2=102_421 phases=3 Linecode=4c_300_SAC Length=0.222 Units=m
New Line.LINE102_421 Bus1=102_419 Bus2=102_422 phases=3 Linecode=4c_95_SAC_XC Length=8.8617 Units=m
New Line.LINE102_422 Bus1=102_421 Bus2=102_423 phases=3 Linecode=4c_300_SAC Length=0.18051 Units=m
New Line.LINE102_423 Bus1=102_422 Bus2=102_424 phases=3 Linecode=4c_95_SAC_XC Length=0.25959 Units=m
New Line.LINE102_424 Bus1=102_423 Bus2=102_425 phases=3 Linecode=4c_300_SAC Length=0.266 Units=m
New Line.LINE102_425 Bus1=102_424 Bus2=102_426 phases=3 Linecode=4c_95_SAC_XC Length=0.46348 Units=m
New Line.LINE102_426 Bus1=102_425 Bus2=102_427 phases=3 Linecode=4c_300_SAC Length=0.25278 Units=m
New Line.LINE102_427 Bus1=102_426 Bus2=102_428 phases=3 Linecode=4c_95_SAC_XC Length=0.89337 Units=m
New Line.LINE102_428 Bus1=102_427 Bus2=102_429 phases=3 Linecode=4c_300_SAC Length=0.28018 Units=m
New Line.LINE102_429 Bus1=102_428 Bus2=102_430 phases=3 Linecode=3c_300_SAC_XC Length=4.5387 Units=m
New Line.LINE102_430 Bus1=102_428 Bus2=102_431 phases=3 Linecode=4c_95_SAC_XC Length=0.46137 Units=m
New Line.LINE102_431 Bus1=102_429 Bus2=102_432 phases=3 Linecode=4c_300_SAC Length=2.7509 Units=m
New Line.LINE102_432 Bus1=102_430 Bus2=102_433 phases=3 Linecode=3c_300_SAC_XC Length=1.2378 Units=m
New Line.LINE102_433 Bus1=102_431 Bus2=102_434 phases=3 Linecode=4c_95_SAC_XC Length=0.16808 Units=m
New Line.LINE102_434 Bus1=102_433 Bus2=102_435 phases=3 Linecode=3c_300_SAC_XC Length=0.17007 Units=m
New Line.LINE102_435 Bus1=102_434 Bus2=102_436 phases=3 Linecode=4c_95_SAC_XC Length=0.37044 Units=m
New Line.LINE102_436 Bus1=102_435 Bus2=102_437 phases=3 Linecode=3c_300_SAC_XC Length=0.091761 Units=m
New Line.LINE102_437 Bus1=102_436 Bus2=102_438 phases=3 Linecode=4c_95_SAC_XC Length=0.26499 Units=m
New Line.LINE102_438 Bus1=102_437 Bus2=102_439 phases=3 Linecode=3c_300_SAC_XC Length=0.089403 Units=m
New Line.LINE102_439 Bus1=102_438 Bus2=102_440 phases=3 Linecode=4c_95_SAC_XC Length=0.30997 Units=m
New Line.LINE102_440 Bus1=102_439 Bus2=102_441 phases=3 Linecode=3c_300_SAC_XC Length=0.11346 Units=m
New Line.LINE102_441 Bus1=102_440 Bus2=102_442 phases=3 Linecode=4c_95_SAC_XC Length=8.8451 Units=m
New Line.LINE102_442 Bus1=102_441 Bus2=102_443 phases=3 Linecode=3c_300_SAC_XC Length=0.093478 Units=m
New Line.LINE102_443 Bus1=102_442 Bus2=102_444 phases=3 Linecode=25_SAC_XC Length=10.2776 Units=m
New Line.LINE102_444 Bus1=102_443 Bus2=102_445 phases=3 Linecode=3c_300_SAC_XC Length=0.13731 Units=m
New Line.LINE102_445 Bus1=102_445 Bus2=102_446 phases=3 Linecode=3c_300_SAC_XC Length=0.15959 Units=m
New Line.LINE102_446 Bus1=102_446 Bus2=102_447 phases=3 Linecode=3c_300_SAC_XC Length=0.20279 Units=m
New Line.LINE102_447 Bus1=102_447 Bus2=102_448 phases=3 Linecode=3c_300_SAC_XC Length=0.19938 Units=m
New Line.LINE102_448 Bus1=102_448 Bus2=102_449 phases=3 Linecode=3c_300_SAC_XC Length=0.45736 Units=m
New Line.LINE102_449 Bus1=102_449 Bus2=102_450 phases=3 Linecode=3c_300_SAC_XC Length=0.46112 Units=m
New Line.LINE102_450 Bus1=102_450 Bus2=102_451 phases=3 Linecode=3c_300_SAC_XC Length=0.43701 Units=m
New Line.LINE102_451 Bus1=102_451 Bus2=102_452 phases=3 Linecode=3c_300_SAC_XC Length=7.0921 Units=m
New Line.LINE102_452 Bus1=102_452 Bus2=102_453 phases=3 Linecode=3c_300_SAC_XC Length=3.8255 Units=m
New Line.LINE102_453 Bus1=102_453 Bus2=102_454 phases=3 Linecode=3c_300_SAC_XC Length=0.31992 Units=m
New Line.LINE102_454 Bus1=102_454 Bus2=102_455 phases=3 Linecode=3c_300_SAC_XC Length=0.14723 Units=m
New Line.LINE102_455 Bus1=102_455 Bus2=102_456 phases=3 Linecode=3c_300_SAC_XC Length=0.13524 Units=m
