Test_Network/condensed/network_10/Feeder_3/LineCode.txt
New LineCode.240_SAC_XC nphases=3 R1=0.127 X1=0.073 R0=0.619 X0=0.109 C1=0 C0=0 Units=km 
New LineCode.25_SAC_XC nphases=3 R1=1.2 X1=0.079 R0=1.3 X0=0.079 C1=0 C0=0 Units=km Normamps=100
New LineCode.2c_.007 nphases=3 R1=3.97 X1=0.099 R0=3.97 X0=0.099 C1=0 C0=0 Units=km Normamps=55
New LineCode.2c_.0225 nphases=3 R1=1.257 X1=0.085 R0=1.257 X0=0.085 C1=0 C0=0 Units=km Normamps=100
New LineCode.3c_300_SAC_XC nphases=3 R1=0.102 X1=0.073 R0=0.594 X0=0.105 C1=0 C0=0 Units=km Normamps=400
New LineCode.4_PC nphases=3 R1=4.61 X1=0.094 R0=4.8 X0=0.094 C1=0 C0=0 Units=km Normamps=55
New LineCode.4_PSC nphases=3 R1=4.61 X1=0.093 R0=4.8 X0=0.093 C1=0 C0=0 Units=km Normamps=55
New LineCode.4c_.1 nphases=3 R1=0.274 X1=0.073 R0=0.959 X0=0.079 C1=0 C0=0 Units=km Normamps=200
New LineCode.4c_.25 nphases=3 R1=0.124 X1=0.069 R0=0.441 X0=0.077 C1=0 C0=0 Units=km Normamps=355
New LineCode.4c_.3 nphases=3 R1=0.106 X1=0.068 R0=0.379 X0=0.076 C1=0 C0=0 Units=km Normamps=400
New LineCode.4c_.5 nphases=3 R1=0.059 X1=0.067 R0=0.215 X0=0.074 C1=0 C0=0 Units=km Normamps=570
New LineCode.4c_.5_AS nphases=3 R1=0.059 X1=0.067 R0=0.215 X0=0.074 C1=0 C0=0 Units=km 
New LineCode.4c_300_SAC nphases=3 R1=0.102 X1=0.073 R0=0.291 X0=0.087 C1=0 C0=0 Units=km Normamps=430
New LineCode.95_SAC_XC nphases=3 R1=0.322 X1=0.074 R0=1.282 X0=0.125 C1=0 C0=0 Units=km 
