Test_Network/condensed/network_10/Feeder_3/LinesUnq.txt
New Line.LINE103_1 Bus1=103_1 Bus2=103_2 phases=3 Linecode=3c_300_SAC_XC Length=0.25077 Units=m
New Line.LINE103_2 Bus1=103_2 Bus2=103_3 phases=3 Linecode=3c_300_SAC_XC Length=0.051866 Units=m
New Line.LINE103_3 Bus1=103_3 Bus2=103_4 phases=3 Linecode=3c_300_SAC_XC Length=0.031065 Units=m
New Line.LINE103_4 Bus1=103_4 Bus2=103_5 phases=3 Linecode=3c_300_SAC_XC Length=0.0314 Units=m
New Line.LINE103_5 Bus1=103_5 Bus2=103_6 phases=3 Linecode=3c_300_SAC_XC Length=0.038601 Units=m
New Line.LINE103_6 Bus1=103_6 Bus2=103_7 phases=3 Linecode=3c_300_SAC_XC Length=0.056294 Units=m
New Line.LINE103_7 Bus1=103_7 Bus2=103_8 phases=3 Linecode=3c_300_SAC_XC Length=0.047424 Units=m
New Line.LINE103_8 Bus1=103_8 Bus2=103_9 phases=3 Linecode=3c_300_SAC_XC Length=0.047321 Units=m
New Line.LINE103_9 Bus1=103_9 Bus2=103_10 phases=3 Linecode=3c_300_SAC_XC Length=0.055698 Units=m
New Line.LINE103_10 Bus1=103_10 Bus2=103_11 phases=3 Linecode=3c_300_SAC_XC Length=0.034 Units=m
New Line.LINE103_11 Bus1=103_11 Bus2=103_12 phases=3 Linecode=3c_300_SAC_XC Length=0.08127 Units=m
New Line.LINE103_12 Bus1=103_12 Bus2=103_13 phases=3 Linecode=3c_300_SAC_XC Length=0.5174 Units=m
New Line.LINE103_13 Bus1=103_13 Bus2=103_14 phases=3 Linecode=3c_300_SAC_XC Length=0.26439 Units=m
New Line.LINE103_14 Bus1=103_14 Bus2=103_15 phases=3 Linecode=3c_300_SAC_XC Length=1.5261 Units=m
New Line.LINE103_15 Bus1=103_15 Bus2=103_16 phases=3 Linecode=3c_300_SAC_XC Length=0.069291 Units=m
New Line.LINE103_16 Bus1=103_16 Bus2=103_17 phases=3 Linecode=3c_300_SAC_XC Length=0.081411 Units=m
New Line.LINE103_17 Bus1=103_17 Bus2=103_18 phases=3 Linecode=3c_300_SAC_XC Length=0.061295 Units=m
New Line.LINE103_18 Bus1=103_18 Bus2=103_19 phases=3 Linecode=3c_300_SAC_XC Length=0.041869 Units=m
New Line.LINE103_19 Bus1=103_19 Bus2=103_20 phases=3 Linecode=3c_300_SAC_XC Length=0.099402 Units=m
New Line.LINE103_20 Bus1=103_20 Bus2=103_21 phases=3 Linecode=3c_300_SAC_XC Length=0.098839 Units=m
New Line.LINE103_21 Bus1=103_21 Bus2=103_22 phases=3 Linecode=3c_300_SAC_XC Length=0.099328 Units=m
New Line.LINE103_22 Bus1=103_22 Bus2=103_23 phases=3 Linecode=3c_300_SAC_XC Length=0.09985 Units=m
New Line.LINE103_23 Bus1=103_23 Bus2=103_24 phases=3 Linecode=3c_300_SAC_XC Length=0.099126 Units=m
New Line.LINE103_24 Bus1=103_24 Bus2=103_25 phases=3 Linecode=3c_300_SAC_XC Length=0.099247 Units=m
New Line.LINE103_25 Bus1=103_25 Bus2=103_26 phases=3 Linecode=3c_300_SAC_XC Length=0.53899 Units=m
New Line.LINE103_26 Bus1=103_26 Bus2=103_27 phases=3 Linecode=3c_300_SAC_XC Length=1.3641 Units=m
New Line.LINE103_27 Bus1=103_27 Bus2=103_28 phases=3 Linecode=3c_300_SAC_XC Length=2.0852 Units=m
New Line.LINE103_28 Bus1=103_28 Bus2=103_29 phases=3 Linecode=3c_300_SAC_XC Length=1.3633 Units=m
New Line.LINE103_29 Bus1=103_29 Bus2=103_30 phases=3 Linecode=3c_300_SAC_XC Length=1.0549 Units=m
New Line.LINE103_30 Bus1=103_30 Bus2=103_31 phases=3 Linecode=3c_300_SAC_XC Length=0.87671 Units=m
New Line.LINE103_31 Bus1=103_31 Bus2=103_32 phases=3 Linecode=3c_300_SAC_XC Length=0.40268 Units=m
New Line.LINE103_32 Bus1=103_32 Bus2=103_33 phases=3 Linecode=3c_300_SAC_XC Length=0.19676 Units=m
New Line.LINE103_33 Bus1=103_33 Bus2=103_34 phases=3 Linecode=3c_300_SAC_XC Length=3.2652 Units=m
New Line.LINE103_34 Bus1=103_34 Bus2=103_35 phases=3 Linecode=3c_300_SAC_XC Length=6.5935 Units=m
New Line.LINE103_35 Bus1=103_35 Bus2=103_36 phases=3 Linecode=3c_300_SAC_XC Length=0.99242 Units=m
New Line.LINE103_36 Bus1=103_36 Bus2=103_37 phases=3 Linecode=3c_300_SAC_XC Length=0.2614 Units=m
New Line.LINE103_37 Bus1=103_37 Bus2=103_38 phases=3 Linecode=3c_300_SAC_XC Length=0.24292 Units=m
New Line.LINE103_38 Bus1=103_38 Bus2=103_39 phases=3 Linecode=3c_300_SAC_XC Length=1.7197 Units=m
New Line.LINE103_39 Bus1=103_39 Bus2=103_40 phases=3 Linecode=3c_300_SAC_XC Length=1.5537 Units=m
New Line.LINE103_40 Bus1=103_40 Bus2=103_41 phases=3 Linecode=3c_300_SAC_XC Length=2.2715 Units=m
New Line.LINE103_41 Bus1=103_41 Bus2=103_42 phases=3 Linecode=3c_300_SAC_XC Length=1.0138 Units=m
New Line.LINE103_42 Bus1=103_42 Bus2=103_43 phases=3 Linecode=3c_300_SAC_XC Length=0.26438 Units=m
New Line.LINE103_43 Bus1=103_43 Bus2=103_44 phases=3 Linecode=4c_300_SAC Length=0.74316 Units=m
New Line.LINE103_44 Bus1=103_44 Bus2=103_45 phases=3 Linecode=4c_300_SAC Length=3.1371 Units=m
New Line.LINE103_45 Bus1=103_45 Bus2=103_46 phases=3 Linecode=4c_300_SAC Length=0.60093 Units=m
New Line.LINE103_46 Bus1=103_46 Bus2=103_47 phases=3 Linecode=4c_300_SAC Length=0.54027 Units=m
New Line.LINE103_47 Bus1=103_47 Bus2=103_48 phases=3 Linecode=4c_300_SAC Length=0.40599 Units=m
New Line.LINE103_48 Bus1=103_48 Bus2=103_49 phases=3 Linecode=4c_.5 Length=0.6109 Units=m
New Line.LINE103_49 Bus1=103_49 Bus2=103_50 phases=3 Linecode=4c_.5 Length=0.25371 Units=m
New Line.LINE103_50 Bus1=103_50 Bus2=103_51 phases=3 Linecode=4c_.5 Length=6.5347 Units=m
New Line.LINE103_51 Bus1=103_51 Bus2=103_52 phases=3 Linecode=4c_.5 Length=0.045309 Units=m
...